
  EPA STORM WATER MANAGEMENT MODEL - VERSION 5.1 (Build 5.1.005)
  --------------------------------------------------------------

  WARNING 01: wet weather time step reduced to recording interval for Rain Gage 300_main_street
  WARNING 04: minimum elevation drop used for Conduit 46
  WARNING 04: minimum elevation drop used for Conduit 58
  WARNING 04: minimum elevation drop used for Conduit 59
  WARNING 04: minimum elevation drop used for Conduit 60
  WARNING 04: minimum elevation drop used for Conduit 61
  WARNING 04: minimum elevation drop used for Conduit 63
  WARNING 04: minimum elevation drop used for Conduit 67
  WARNING 04: minimum elevation drop used for Conduit 72
  WARNING 04: minimum elevation drop used for Conduit 73
  WARNING 04: minimum elevation drop used for Conduit 74
  WARNING 04: minimum elevation drop used for Conduit 78
  WARNING 04: minimum elevation drop used for Conduit 56
  WARNING 02: maximum depth increased for Node 22
  WARNING 02: maximum depth increased for Node 23
  WARNING 02: maximum depth increased for Node 24
  WARNING 02: maximum depth increased for Node 25
  WARNING 02: maximum depth increased for Node 32
  WARNING 02: maximum depth increased for Node 33
  WARNING 02: maximum depth increased for Node 34
  WARNING 02: maximum depth increased for Node 35
  WARNING 02: maximum depth increased for Node 36
  WARNING 02: maximum depth increased for Node 37
  WARNING 02: maximum depth increased for Node 40
  WARNING 02: maximum depth increased for Node 41
  WARNING 02: maximum depth increased for Node 42
  WARNING 02: maximum depth increased for Node 43
  WARNING 02: maximum depth increased for Node 44
  WARNING 02: maximum depth increased for Node 46
  WARNING 02: maximum depth increased for Node 47
  WARNING 02: maximum depth increased for Node 48
  WARNING 02: maximum depth increased for Node 49
  WARNING 02: maximum depth increased for Node 50
  WARNING 02: maximum depth increased for Node 51
  WARNING 02: maximum depth increased for Node 52
  WARNING 02: maximum depth increased for Node 55
  WARNING 02: maximum depth increased for Node 56a
  WARNING 02: maximum depth increased for Node 57
  WARNING 02: maximum depth increased for Node 58
  WARNING 02: maximum depth increased for Node 59
  WARNING 02: maximum depth increased for Node 60
  WARNING 02: maximum depth increased for Node 61
  WARNING 02: maximum depth increased for Node 62
  WARNING 02: maximum depth increased for Node 63
  WARNING 02: maximum depth increased for Node 64
  WARNING 02: maximum depth increased for Node 65
  WARNING 02: maximum depth increased for Node 66
  WARNING 02: maximum depth increased for Node 67
  WARNING 02: maximum depth increased for Node 68
  WARNING 02: maximum depth increased for Node 69
  WARNING 02: maximum depth increased for Node 70
  WARNING 02: maximum depth increased for Node 71
  WARNING 02: maximum depth increased for Node 72
  WARNING 02: maximum depth increased for Node 73
  WARNING 02: maximum depth increased for Node 74
  WARNING 02: maximum depth increased for Node 75
  WARNING 02: maximum depth increased for Node 76
  WARNING 02: maximum depth increased for Node 77
  WARNING 02: maximum depth increased for Node 78
  WARNING 02: maximum depth increased for Node 79
  WARNING 02: maximum depth increased for Node 92
  WARNING 02: maximum depth increased for Node 134
  WARNING 02: maximum depth increased for Node 135
  WARNING 02: maximum depth increased for Node 136
  WARNING 02: maximum depth increased for Node 138
  WARNING 02: maximum depth increased for Node 139
  WARNING 02: maximum depth increased for Node 140
  WARNING 02: maximum depth increased for Node 141
  WARNING 02: maximum depth increased for Node 142
  WARNING 02: maximum depth increased for Node 143
  WARNING 02: maximum depth increased for Node 158
  WARNING 02: maximum depth increased for Node 159
  WARNING 02: maximum depth increased for Node 163
  WARNING 02: maximum depth increased for Node 164
  WARNING 02: maximum depth increased for Node 165
  WARNING 02: maximum depth increased for Node 166
  WARNING 02: maximum depth increased for Node 167
  WARNING 02: maximum depth increased for Node 168
  WARNING 02: maximum depth increased for Node 170
  WARNING 02: maximum depth increased for Node 171
  WARNING 02: maximum depth increased for Node 173
  WARNING 02: maximum depth increased for Node 174
  
  *********************************************************
  NOTE: The summary statistics displayed in this report are
  based on results found at every computational time step,  
  not just on results from each reporting time step.
  *********************************************************
  
  ****************
  Analysis Options
  ****************
  Flow Units ............... CMS
  Process Models:
    Rainfall/Runoff ........ YES
    RDII ................... NO
    Snowmelt ............... NO
    Groundwater ............ NO
    Flow Routing ........... YES
    Ponding Allowed ........ NO
    Water Quality .......... NO
  Infiltration Method ...... CURVE_NUMBER
  Flow Routing Method ...... DYNWAVE
  Starting Date ............ FEB-04-2013 00:00:00
  Ending Date .............. FEB-05-2013 00:00:00
  Antecedent Dry Days ...... 0.0
  Report Time Step ......... 00:05:00
  Wet Time Step ............ 00:01:00
  Dry Time Step ............ 00:15:00
  Routing Time Step ........ 30.00 sec
  Variable Time Step ....... YES
  Maximum Trials ........... 8
  Head Tolerance ........... 0.005000 m
  
  
  **************************        Volume         Depth
  Runoff Quantity Continuity     hectare-m            mm
  **************************     ---------       -------
  Total Precipitation ......         0.000         0.000
  Evaporation Loss .........         0.000         0.000
  Infiltration Loss ........         0.000         0.000
  Surface Runoff ...........         0.000         0.000
  Final Surface Storage ....         0.000         0.000
  Continuity Error (%) .....         0.000
  
  
  **************************        Volume        Volume
  Flow Routing Continuity        hectare-m      10^6 ltr
  **************************     ---------     ---------
  Dry Weather Inflow .......         0.000         0.000
  Wet Weather Inflow .......         0.000         0.000
  Groundwater Inflow .......         0.000         0.000
  RDII Inflow ..............         0.000         0.000
  External Inflow ..........         0.000         0.000
  External Outflow .........         0.000         0.000
  Internal Outflow .........         0.000         0.000
  Evaporation Loss .........         0.000         0.000
  Seepage Loss .............         0.000         0.000
  Initial Stored Volume ....         0.035         0.351
  Final Stored Volume ......         0.035         0.354
  Continuity Error (%) .....        -0.666
  
  
  ***************************
  Time-Step Critical Elements
  ***************************
  None
  
  
  ********************************
  Highest Flow Instability Indexes
  ********************************
  All links are stable.
  
  
  *************************
  Routing Time Step Summary
  *************************
  Minimum Time Step           :    30.00 sec
  Average Time Step           :    29.99 sec
  Maximum Time Step           :    30.00 sec
  Percent in Steady State     :     0.00
  Average Iterations per Step :     2.00
  Percent Not Converging      :     0.00
  
  
  ***************************
  Subcatchment Runoff Summary
  ***************************
  
  --------------------------------------------------------------------------------------------------------
                            Total      Total      Total      Total      Total       Total     Peak  Runoff
                           Precip      Runon       Evap      Infil     Runoff      Runoff   Runoff   Coeff
  Subcatchment                 mm         mm         mm         mm         mm    10^6 ltr      CMS
  --------------------------------------------------------------------------------------------------------
  ws-1                       0.00       0.00       0.00       0.00       0.00        0.00     0.00   0.000
  ws-2                       0.00       0.00       0.00       0.00       0.00        0.00     0.00   0.000
  ws-3                       0.00       0.00       0.00       0.00       0.00        0.00     0.00   0.000
  ws-7                       0.00       0.00       0.00       0.00       0.00        0.00     0.00   0.000
  ws-8                       0.00       0.00       0.00       0.00       0.00        0.00     0.00   0.000
  ws-9                       0.00       0.00       0.00       0.00       0.00        0.00     0.00   0.000
  ws-10                      0.00       0.00       0.00       0.00       0.00        0.00     0.00   0.000
  ws-11                      0.00       0.00       0.00       0.00       0.00        0.00     0.00   0.000
  ws-12                      0.00       0.00       0.00       0.00       0.00        0.00     0.00   0.000
  ws-13                      0.00       0.00       0.00       0.00       0.00        0.00     0.00   0.000
  ws-14                      0.00       0.00       0.00       0.00       0.00        0.00     0.00   0.000
  ws-15                      0.00       0.00       0.00       0.00       0.00        0.00     0.00   0.000
  ws-16                      0.00       0.00       0.00       0.00       0.00        0.00     0.00   0.000
  ws-17                      0.00       0.00       0.00       0.00       0.00        0.00     0.00   0.000
  ws-18                      0.00       0.00       0.00       0.00       0.00        0.00     0.00   0.000
  ws-19                      0.00       0.00       0.00       0.00       0.00        0.00     0.00   0.000
  ws-20                      0.00       0.00       0.00       0.00       0.00        0.00     0.00   0.000
  ws-21                      0.00       0.00       0.00       0.00       0.00        0.00     0.00   0.000
  ws-22                      0.00       0.00       0.00       0.00       0.00        0.00     0.00   0.000
  ws-23                      0.00       0.00       0.00       0.00       0.00        0.00     0.00   0.000
  ws-24                      0.00       0.00       0.00       0.00       0.00        0.00     0.00   0.000
  ws-25                      0.00       0.00       0.00       0.00       0.00        0.00     0.00   0.000
  ws-26                      0.00       0.00       0.00       0.00       0.00        0.00     0.00   0.000
  ws-27                      0.00       0.00       0.00       0.00       0.00        0.00     0.00   0.000
  ws-28                      0.00       0.00       0.00       0.00       0.00        0.00     0.00   0.000
  ws-29                      0.00       0.00       0.00       0.00       0.00        0.00     0.00   0.000
  ws-30                      0.00       0.00       0.00       0.00       0.00        0.00     0.00   0.000
  ws-31                      0.00       0.00       0.00       0.00       0.00        0.00     0.00   0.000
  ws-32                      0.00       0.00       0.00       0.00       0.00        0.00     0.00   0.000
  ws-35                      0.00       0.00       0.00       0.00       0.00        0.00     0.00   0.000
  ws-37                      0.00       0.00       0.00       0.00       0.00        0.00     0.00   0.000
  ws-38                      0.00       0.00       0.00       0.00       0.00        0.00     0.00   0.000
  ws-40                      0.00       0.00       0.00       0.00       0.00        0.00     0.00   0.000
  ws-41                      0.00       0.00       0.00       0.00       0.00        0.00     0.00   0.000
  ws-42                      0.00       0.00       0.00       0.00       0.00        0.00     0.00   0.000
  ws-43                      0.00       0.00       0.00       0.00       0.00        0.00     0.00   0.000
  ws-45                      0.00       0.00       0.00       0.00       0.00        0.00     0.00   0.000
  ws-46                      0.00       0.00       0.00       0.00       0.00        0.00     0.00   0.000
  ws-47                      0.00       0.00       0.00       0.00       0.00        0.00     0.00   0.000
  ws-48                      0.00       0.00       0.00       0.00       0.00        0.00     0.00   0.000
  ws-49                      0.00       0.00       0.00       0.00       0.00        0.00     0.00   0.000
  ws-50                      0.00       0.00       0.00       0.00       0.00        0.00     0.00   0.000
  ws-52                      0.00       0.00       0.00       0.00       0.00        0.00     0.00   0.000
  ws-53                      0.00       0.00       0.00       0.00       0.00        0.00     0.00   0.000
  ws-54                      0.00       0.00       0.00       0.00       0.00        0.00     0.00   0.000
  ws-55                      0.00       0.00       0.00       0.00       0.00        0.00     0.00   0.000
  ws-57                      0.00       0.00       0.00       0.00       0.00        0.00     0.00   0.000
  ws-58                      0.00       0.00       0.00       0.00       0.00        0.00     0.00   0.000
  ws-60                      0.00       0.00       0.00       0.00       0.00        0.00     0.00   0.000
  ws-61                      0.00       0.00       0.00       0.00       0.00        0.00     0.00   0.000
  ws-62                      0.00       0.00       0.00       0.00       0.00        0.00     0.00   0.000
  ws-63                      0.00       0.00       0.00       0.00       0.00        0.00     0.00   0.000
  ws-64                      0.00       0.00       0.00       0.00       0.00        0.00     0.00   0.000
  ws-65                      0.00       0.00       0.00       0.00       0.00        0.00     0.00   0.000
  ws-66                      0.00       0.00       0.00       0.00       0.00        0.00     0.00   0.000
  ws-69                      0.00       0.00       0.00       0.00       0.00        0.00     0.00   0.000
  ws-70                      0.00       0.00       0.00       0.00       0.00        0.00     0.00   0.000
  ws-71                      0.00       0.00       0.00       0.00       0.00        0.00     0.00   0.000
  ws-73                      0.00       0.00       0.00       0.00       0.00        0.00     0.00   0.000
  ws-74                      0.00       0.00       0.00       0.00       0.00        0.00     0.00   0.000
  ws-75                      0.00       0.00       0.00       0.00       0.00        0.00     0.00   0.000
  ws-77                      0.00       0.00       0.00       0.00       0.00        0.00     0.00   0.000
  ws-78                      0.00       0.00       0.00       0.00       0.00        0.00     0.00   0.000
  ws-79                      0.00       0.00       0.00       0.00       0.00        0.00     0.00   0.000
  ws-80                      0.00       0.00       0.00       0.00       0.00        0.00     0.00   0.000
  ws-81                      0.00       0.00       0.00       0.00       0.00        0.00     0.00   0.000
  ws-83                      0.00       0.00       0.00       0.00       0.00        0.00     0.00   0.000
  ws-84                      0.00       0.00       0.00       0.00       0.00        0.00     0.00   0.000
  ws-87                      0.00       0.00       0.00       0.00       0.00        0.00     0.00   0.000
  ws-88                      0.00       0.00       0.00       0.00       0.00        0.00     0.00   0.000
  ws-89                      0.00       0.00       0.00       0.00       0.00        0.00     0.00   0.000
  ws-90                      0.00       0.00       0.00       0.00       0.00        0.00     0.00   0.000
  ws-91                      0.00       0.00       0.00       0.00       0.00        0.00     0.00   0.000
  ws-92                      0.00       0.00       0.00       0.00       0.00        0.00     0.00   0.000
  ws-93                      0.00       0.00       0.00       0.00       0.00        0.00     0.00   0.000
  ws-94                      0.00       0.00       0.00       0.00       0.00        0.00     0.00   0.000
  ws-95                      0.00       0.00       0.00       0.00       0.00        0.00     0.00   0.000
  ws-96                      0.00       0.00       0.00       0.00       0.00        0.00     0.00   0.000
  ws-97                      0.00       0.00       0.00       0.00       0.00        0.00     0.00   0.000
  ws-98                      0.00       0.00       0.00       0.00       0.00        0.00     0.00   0.000
  ws-101                     0.00       0.00       0.00       0.00       0.00        0.00     0.00   0.000
  ws-102                     0.00       0.00       0.00       0.00       0.00        0.00     0.00   0.000
  ws-103                     0.00       0.00       0.00       0.00       0.00        0.00     0.00   0.000
  ws-105                     0.00       0.00       0.00       0.00       0.00        0.00     0.00   0.000
  ws-106                     0.00       0.00       0.00       0.00       0.00        0.00     0.00   0.000
  ws-107                     0.00       0.00       0.00       0.00       0.00        0.00     0.00   0.000
  ws-108                     0.00       0.00       0.00       0.00       0.00        0.00     0.00   0.000
  ws-112                     0.00       0.00       0.00       0.00       0.00        0.00     0.00   0.000
  ws-114                     0.00       0.00       0.00       0.00       0.00        0.00     0.00   0.000
  ws-115                     0.00       0.00       0.00       0.00       0.00        0.00     0.00   0.000
  ws-116                     0.00       0.00       0.00       0.00       0.00        0.00     0.00   0.000
  ws-118                     0.00       0.00       0.00       0.00       0.00        0.00     0.00   0.000
  ws-119                     0.00       0.00       0.00       0.00       0.00        0.00     0.00   0.000
  ws-120                     0.00       0.00       0.00       0.00       0.00        0.00     0.00   0.000
  ws-121                     0.00       0.00       0.00       0.00       0.00        0.00     0.00   0.000
  ws-122                     0.00       0.00       0.00       0.00       0.00        0.00     0.00   0.000
  ws-123                     0.00       0.00       0.00       0.00       0.00        0.00     0.00   0.000
  ws-124                     0.00       0.00       0.00       0.00       0.00        0.00     0.00   0.000
  ws-127                     0.00       0.00       0.00       0.00       0.00        0.00     0.00   0.000
  ws-128                     0.00       0.00       0.00       0.00       0.00        0.00     0.00   0.000
  ws-130                     0.00       0.00       0.00       0.00       0.00        0.00     0.00   0.000
  ws-131                     0.00       0.00       0.00       0.00       0.00        0.00     0.00   0.000
  ws-132                     0.00       0.00       0.00       0.00       0.00        0.00     0.00   0.000
  ws-136                     0.00       0.00       0.00       0.00       0.00        0.00     0.00   0.000
  ws-137                     0.00       0.00       0.00       0.00       0.00        0.00     0.00   0.000
  ws-138                     0.00       0.00       0.00       0.00       0.00        0.00     0.00   0.000
  ws-139                     0.00       0.00       0.00       0.00       0.00        0.00     0.00   0.000
  ws-141                     0.00       0.00       0.00       0.00       0.00        0.00     0.00   0.000
  ws-142                     0.00       0.00       0.00       0.00       0.00        0.00     0.00   0.000
  ws-143                     0.00       0.00       0.00       0.00       0.00        0.00     0.00   0.000
  ws-144                     0.00       0.00       0.00       0.00       0.00        0.00     0.00   0.000
  ws-145                     0.00       0.00       0.00       0.00       0.00        0.00     0.00   0.000
  ws-146                     0.00       0.00       0.00       0.00       0.00        0.00     0.00   0.000
  ws-148                     0.00       0.00       0.00       0.00       0.00        0.00     0.00   0.000
  ws-149                     0.00       0.00       0.00       0.00       0.00        0.00     0.00   0.000
  ws-150                     0.00       0.00       0.00       0.00       0.00        0.00     0.00   0.000
  ws-154                     0.00       0.00       0.00       0.00       0.00        0.00     0.00   0.000
  ws-155                     0.00       0.00       0.00       0.00       0.00        0.00     0.00   0.000
  ws-156                     0.00       0.00       0.00       0.00       0.00        0.00     0.00   0.000
  ws-157                     0.00       0.00       0.00       0.00       0.00        0.00     0.00   0.000
  ws-159                     0.00       0.00       0.00       0.00       0.00        0.00     0.00   0.000
  ws-161                     0.00       0.00       0.00       0.00       0.00        0.00     0.00   0.000
  ws-162                     0.00       0.00       0.00       0.00       0.00        0.00     0.00   0.000
  ws-163                     0.00       0.00       0.00       0.00       0.00        0.00     0.00   0.000
  ws-165                     0.00       0.00       0.00       0.00       0.00        0.00     0.00   0.000
  ws-166                     0.00       0.00       0.00       0.00       0.00        0.00     0.00   0.000
  ws-167                     0.00       0.00       0.00       0.00       0.00        0.00     0.00   0.000
  ws-168                     0.00       0.00       0.00       0.00       0.00        0.00     0.00   0.000
  ws-169                     0.00       0.00       0.00       0.00       0.00        0.00     0.00   0.000
  ws-170                     0.00       0.00       0.00       0.00       0.00        0.00     0.00   0.000
  ws-171                     0.00       0.00       0.00       0.00       0.00        0.00     0.00   0.000
  ws-172                     0.00       0.00       0.00       0.00       0.00        0.00     0.00   0.000
  ws-173                     0.00       0.00       0.00       0.00       0.00        0.00     0.00   0.000
  ws-174                     0.00       0.00       0.00       0.00       0.00        0.00     0.00   0.000
  
  
  ******************
  Node Depth Summary
  ******************
  
  ---------------------------------------------------------------------
                                 Average  Maximum  Maximum  Time of Max
                                   Depth    Depth      HGL   Occurrence
  Node                 Type       Meters   Meters   Meters  days hr:min
  ---------------------------------------------------------------------
  1                    JUNCTION     0.00     0.00    34.70     0  00:00
  2                    JUNCTION     0.00     0.00    35.02     0  00:00
  3                    JUNCTION     0.00     0.00    35.33     0  00:00
  4                    JUNCTION     0.00     0.00    35.65     0  00:00
  5                    JUNCTION     0.00     0.00    35.96     0  00:00
  6                    JUNCTION     0.00     0.00    36.27     0  00:00
  7                    JUNCTION     0.00     0.00    36.59     0  00:00
  8                    JUNCTION     0.00     0.00    36.90     0  00:00
  9                    JUNCTION     0.00     0.00    37.22     0  00:00
  10                   JUNCTION     0.00     0.00    37.53     0  00:00
  11                   JUNCTION     0.00     0.00    37.85     0  00:00
  12                   JUNCTION     0.00     0.00    38.16     0  00:00
  13                   JUNCTION     0.00     0.00    38.48     0  00:00
  14                   JUNCTION     0.00     0.00    38.79     0  00:00
  15                   JUNCTION     0.00     0.00    39.11     0  00:00
  16                   JUNCTION     0.00     0.00    39.43     0  00:00
  17                   JUNCTION     0.00     0.00    39.74     0  00:00
  18                   JUNCTION     0.00     0.00    40.06     0  00:00
  19                   JUNCTION     0.00     0.00    40.38     0  00:00
  20                   JUNCTION     0.00     0.00    40.69     0  00:00
  21                   JUNCTION     0.00     0.00    41.04     0  00:00
  22                   JUNCTION     0.00     0.00    41.36     0  00:00
  23                   JUNCTION     0.00     0.00    41.70     0  00:00
  24                   JUNCTION     0.00     0.00    42.02     0  00:00
  25                   JUNCTION     0.00     0.00    42.14     0  00:00
  26                   JUNCTION     0.00     0.00    42.32     0  00:00
  27                   JUNCTION     0.00     0.00    42.65     0  00:00
  28                   JUNCTION     0.00     0.00    42.96     0  00:00
  29                   JUNCTION     0.00     0.00    43.42     0  00:00
  30                   JUNCTION     0.00     0.00    43.77     0  00:00
  31                   JUNCTION     0.00     0.00    44.09     0  00:00
  32                   JUNCTION     0.00     0.00    44.41     0  00:00
  33                   JUNCTION     0.00     0.00    44.73     0  00:00
  34                   JUNCTION     0.00     0.00    45.04     0  00:00
  35                   JUNCTION     0.00     0.00    45.39     0  00:00
  36                   JUNCTION     0.00     0.00    45.70     0  00:00
  37                   JUNCTION     0.00     0.00    46.07     0  00:00
  38                   JUNCTION     0.00     0.00    46.39     0  00:00
  39                   JUNCTION     0.00     0.00    46.45     0  00:00
  40                   JUNCTION     0.00     0.00    46.94     0  00:00
  41                   JUNCTION     0.00     0.00    48.52     0  00:00
  42                   JUNCTION     0.00     0.00    48.71     0  00:00
  43                   JUNCTION     0.00     0.00    49.79     0  00:00
  44                   JUNCTION     0.00     0.00    50.87     0  00:00
  45                   JUNCTION     0.00     0.00    50.90     0  00:00
  46                   JUNCTION     0.00     0.00    50.90     0  00:00
  47                   JUNCTION     0.00     0.00    51.33     0  00:00
  48                   JUNCTION     0.00     0.00    52.29     0  00:00
  49                   JUNCTION     0.00     0.00    52.36     0  00:00
  50                   JUNCTION     0.00     0.00    52.43     0  00:00
  51                   JUNCTION     0.00     0.00    54.19     0  00:00
  52                   JUNCTION     0.00     0.00    54.30     0  00:00
  53                   JUNCTION     0.00     0.00    54.58     0  00:00
  54                   JUNCTION     0.00     0.00    54.86     0  00:00
  55                   JUNCTION     0.00     0.00    55.23     0  00:00
  56a                  JUNCTION     0.00     0.00    55.50     0  00:00
  57                   JUNCTION     0.00     0.00    56.08     0  00:00
  58                   JUNCTION     0.00     0.00    56.08     0  00:00
  59                   JUNCTION     0.00     0.00    56.08     0  00:00
  60                   JUNCTION     0.00     0.00    56.08     0  00:00
  61                   JUNCTION     0.00     0.00    56.08     0  00:00
  62                   JUNCTION     0.00     0.00    57.91     0  00:00
  63                   JUNCTION     0.00     0.00    57.91     0  00:00
  64                   JUNCTION     0.00     0.00    58.16     0  00:00
  65                   JUNCTION     0.00     0.00    58.43     0  00:00
  66                   JUNCTION     0.00     0.00    58.52     0  00:00
  67                   JUNCTION     0.00     0.00    58.52     0  00:00
  68                   JUNCTION     0.00     0.00    59.53     0  00:00
  69                   JUNCTION     0.00     0.00    59.50     0  00:00
  70                   JUNCTION     0.00     0.00    59.82     0  00:00
  71                   JUNCTION     0.00     0.00    60.05     0  00:00
  72                   JUNCTION     0.00     0.00    60.05     0  00:00
  73                   JUNCTION     0.00     0.00    60.05     0  00:00
  74                   JUNCTION     0.00     0.00    60.05     0  00:00
  75                   JUNCTION     0.00     0.00    60.66     0  00:00
  76                   JUNCTION     0.00     0.00    60.96     0  00:00
  77                   JUNCTION     0.00     0.00    61.57     0  00:00
  78                   JUNCTION     0.00     0.00    61.57     0  00:00
  79                   JUNCTION     0.00     0.00    62.18     0  00:00
  80                   JUNCTION     0.00     0.00    62.62     0  00:00
  81                   JUNCTION     0.00     0.00    62.83     0  00:00
  82                   JUNCTION     0.00     0.00    63.04     0  00:00
  83                   JUNCTION     0.00     0.00    63.25     0  00:00
  84                   JUNCTION     0.00     0.00    63.46     0  00:00
  85                   JUNCTION     0.00     0.00    63.67     0  00:00
  86                   JUNCTION     0.00     0.00    63.88     0  00:00
  87                   JUNCTION     0.00     0.00    64.09     0  00:00
  88                   JUNCTION     0.00     0.00    64.30     0  00:00
  89                   JUNCTION     0.00     0.00    64.51     0  00:00
  90                   JUNCTION     0.00     0.00    64.79     0  00:00
  91                   JUNCTION     0.00     0.00    65.00     0  00:00
  92                   JUNCTION     0.00     0.00    65.21     0  00:00
  93                   JUNCTION     0.00     0.00    65.42     0  00:00
  94                   JUNCTION     0.00     0.00    65.63     0  00:00
  95                   JUNCTION     0.00     0.00    65.84     0  00:00
  96                   JUNCTION     0.00     0.00    66.05     0  00:00
  97                   JUNCTION     0.00     0.00    66.26     0  00:00
  98                   JUNCTION     0.00     0.00    66.29     0  00:00
  99                   JUNCTION     0.00     0.00    66.32     0  00:00
  100                  JUNCTION     0.00     0.00    66.35     0  00:00
  101                  JUNCTION     0.00     0.00    66.38     0  00:00
  102                  JUNCTION     0.00     0.00    66.44     0  00:00
  103                  JUNCTION     0.00     0.00    66.50     0  00:00
  104                  JUNCTION     0.00     0.00    66.56     0  00:00
  105                  JUNCTION     0.00     0.00    66.62     0  00:00
  106                  JUNCTION     0.00     0.00    66.68     0  00:00
  107                  JUNCTION     0.00     0.00    66.74     0  00:00
  108                  JUNCTION     0.00     0.00    66.80     0  00:00
  109                  JUNCTION     0.00     0.00    66.86     0  00:00
  110                  JUNCTION     0.00     0.00    66.92     0  00:00
  111                  JUNCTION     0.00     0.00    66.97     0  00:00
  112                  JUNCTION     0.00     0.00    67.06     0  00:00
  113                  JUNCTION     0.00     0.00    67.65     0  00:00
  114                  JUNCTION     0.00     0.00    68.35     0  00:00
  115                  JUNCTION     0.00     0.00    68.95     0  00:00
  116                  JUNCTION     0.00     0.00    69.81     0  00:00
  117                  JUNCTION     0.00     0.00    70.41     0  00:00
  118                  JUNCTION     0.00     0.00    71.01     0  00:00
  119                  JUNCTION     0.00     0.00    71.61     0  00:00
  120                  JUNCTION     0.00     0.00    72.21     0  00:00
  121                  JUNCTION     0.00     0.00    72.82     0  00:00
  122                  JUNCTION     0.00     0.00    73.45     0  00:00
  123                  JUNCTION     0.00     0.00    74.14     0  00:00
  124                  JUNCTION     0.00     0.00    72.52     0  00:00
  125                  JUNCTION     0.00     0.00    72.83     0  00:00
  126                  JUNCTION     0.00     0.00    73.13     0  00:00
  127                  JUNCTION     0.00     0.00    73.43     0  00:00
  128                  JUNCTION     0.00     0.00    73.76     0  00:00
  129                  JUNCTION     0.00     0.00    74.11     0  00:00
  130                  JUNCTION     0.00     0.00    74.61     0  00:00
  131                  JUNCTION     0.00     0.00    75.11     0  00:00
  132                  JUNCTION     0.00     0.00    64.94     0  00:00
  133                  JUNCTION     0.00     0.00    65.09     0  00:00
  134                  JUNCTION     0.00     0.00    65.24     0  00:00
  135                  JUNCTION     0.00     0.00    65.39     0  00:00
  136                  JUNCTION     0.00     0.00    65.54     0  00:00
  137                  JUNCTION     0.00     0.00    65.56     0  00:00
  138                  JUNCTION     0.00     0.00    65.58     0  00:00
  139                  JUNCTION     0.00     0.00    65.59     0  00:00
  140                  JUNCTION     0.00     0.00    65.61     0  00:00
  141                  JUNCTION     0.00     0.00    65.62     0  00:00
  142                  JUNCTION     0.00     0.00    65.64     0  00:00
  143                  JUNCTION     0.00     0.00    65.66     0  00:00
  144                  JUNCTION     0.00     0.00    65.67     0  00:00
  145                  JUNCTION     0.00     0.00    65.69     0  00:00
  146                  JUNCTION     0.00     0.00    65.70     0  00:00
  147                  JUNCTION     0.00     0.00    65.72     0  00:00
  148                  JUNCTION     0.00     0.00    65.74     0  00:00
  149                  JUNCTION     0.00     0.00    65.75     0  00:00
  150                  JUNCTION     0.00     0.00    66.38     0  00:00
  151                  JUNCTION     0.00     0.00    66.82     0  00:00
  152                  JUNCTION     0.00     0.00    67.42     0  00:00
  153                  JUNCTION     0.00     0.00    68.02     0  00:00
  154                  JUNCTION     0.00     0.00    68.62     0  00:00
  155                  JUNCTION     0.00     0.00    69.22     0  00:00
  156                  JUNCTION     0.00     0.00    69.82     0  00:00
  157                  JUNCTION     0.00     0.00    70.42     0  00:00
  158                  JUNCTION     0.00     0.00    71.02     0  00:00
  159                  JUNCTION     0.00     0.00    71.51     0  00:00
  160                  JUNCTION     0.00     0.00    45.55     0  00:00
  161                  JUNCTION     0.00     0.00    45.64     0  00:00
  162                  JUNCTION     0.00     0.00    45.73     0  00:00
  163                  JUNCTION     0.00     0.00    45.83     0  00:00
  164                  JUNCTION     0.00     0.00    45.92     0  00:00
  165                  JUNCTION     0.00     0.00    46.01     0  00:00
  166                  JUNCTION     0.00     0.00    46.10     0  00:00
  167                  JUNCTION     0.00     0.00    46.28     0  00:00
  168                  JUNCTION     0.00     0.00    46.37     0  00:00
  169                  JUNCTION     0.00     0.00    46.46     0  00:00
  170                  JUNCTION     0.00     0.00    46.55     0  00:00
  171                  JUNCTION     0.00     0.00    46.71     0  00:00
  172                  JUNCTION     0.00     0.00    47.28     0  00:00
  173                  JUNCTION     0.00     0.00    48.01     0  00:00
  174                  JUNCTION     0.00     0.00    49.36     0  00:00
  47a                  JUNCTION     0.00     0.00    52.21     0  00:00
  47b                  JUNCTION     0.00     0.00    52.24     0  00:00
  56b                  JUNCTION     0.00     0.00    55.50     0  00:00
  0                    OUTFALL      2.00     2.00    34.39     0  00:00
  
  
  *******************
  Node Inflow Summary
  *******************
  
  -------------------------------------------------------------------------------------------------
                                  Maximum  Maximum                  Lateral       Total        Flow
                                  Lateral    Total  Time of Max      Inflow      Inflow     Balance
                                   Inflow   Inflow   Occurrence      Volume      Volume       Error
  Node                 Type           CMS      CMS  days hr:min    10^6 ltr    10^6 ltr     Percent
  -------------------------------------------------------------------------------------------------
  1                    JUNCTION     0.000    0.000     0  00:00           0           0       0.000 ltr
  2                    JUNCTION     0.000    0.000     0  00:00           0           0       0.000 ltr
  3                    JUNCTION     0.000    0.000     0  00:00           0           0       0.000 ltr
  4                    JUNCTION     0.000    0.000     0  00:00           0           0       0.000 ltr
  5                    JUNCTION     0.000    0.000     0  00:00           0           0       0.000 ltr
  6                    JUNCTION     0.000    0.000     0  00:00           0           0       0.000 ltr
  7                    JUNCTION     0.000    0.000     0  00:00           0           0       0.000 ltr
  8                    JUNCTION     0.000    0.000     0  00:00           0           0       0.000 ltr
  9                    JUNCTION     0.000    0.000     0  00:00           0           0       0.000 ltr
  10                   JUNCTION     0.000    0.000     0  00:00           0           0       0.000 ltr
  11                   JUNCTION     0.000    0.000     0  00:00           0           0       0.000 ltr
  12                   JUNCTION     0.000    0.000     0  00:00           0           0       0.000 ltr
  13                   JUNCTION     0.000    0.000     0  00:00           0           0       0.000 ltr
  14                   JUNCTION     0.000    0.000     0  00:00           0           0       0.000 ltr
  15                   JUNCTION     0.000    0.000     0  00:00           0           0       0.000 ltr
  16                   JUNCTION     0.000    0.000     0  00:00           0           0       0.000 ltr
  17                   JUNCTION     0.000    0.000     0  00:00           0           0       0.000 ltr
  18                   JUNCTION     0.000    0.000     0  00:00           0           0       0.000 ltr
  19                   JUNCTION     0.000    0.000     0  00:00           0           0       0.000 ltr
  20                   JUNCTION     0.000    0.000     0  00:00           0           0       0.000 ltr
  21                   JUNCTION     0.000    0.000     0  00:00           0           0       0.000 ltr
  22                   JUNCTION     0.000    0.000     0  00:00           0           0       0.000 ltr
  23                   JUNCTION     0.000    0.000     0  00:00           0           0       0.000 ltr
  24                   JUNCTION     0.000    0.000     0  00:00           0           0       0.000 ltr
  25                   JUNCTION     0.000    0.000     0  00:00           0           0       0.000 ltr
  26                   JUNCTION     0.000    0.000     0  00:00           0           0       0.000 ltr
  27                   JUNCTION     0.000    0.000     0  00:00           0           0       0.000 ltr
  28                   JUNCTION     0.000    0.000     0  00:00           0           0       0.000 ltr
  29                   JUNCTION     0.000    0.000     0  00:00           0           0       0.000 ltr
  30                   JUNCTION     0.000    0.000     0  00:00           0           0       0.000 ltr
  31                   JUNCTION     0.000    0.000     0  00:00           0           0       0.000 ltr
  32                   JUNCTION     0.000    0.000     0  00:00           0           0       0.000 ltr
  33                   JUNCTION     0.000    0.000     0  00:00           0           0       0.000 ltr
  34                   JUNCTION     0.000    0.000     0  00:00           0           0       0.000 ltr
  35                   JUNCTION     0.000    0.000     0  00:00           0           0       0.000 ltr
  36                   JUNCTION     0.000    0.000     0  00:00           0           0       0.000 ltr
  37                   JUNCTION     0.000    0.000     0  00:00           0           0       0.000 ltr
  38                   JUNCTION     0.000    0.000     0  00:00           0           0       0.000 ltr
  39                   JUNCTION     0.000    0.000     0  00:00           0           0       0.000 ltr
  40                   JUNCTION     0.000    0.000     0  00:00           0           0       0.000 ltr
  41                   JUNCTION     0.000    0.000     0  00:00           0           0       0.000 ltr
  42                   JUNCTION     0.000    0.000     0  00:00           0           0       0.000 ltr
  43                   JUNCTION     0.000    0.000     0  00:00           0           0       0.000 ltr
  44                   JUNCTION     0.000    0.000     0  00:00           0           0       0.000 ltr
  45                   JUNCTION     0.000    0.000     0  00:00           0           0       0.000 ltr
  46                   JUNCTION     0.000    0.000     0  00:00           0           0       0.000 ltr
  47                   JUNCTION     0.000    0.000     0  00:00           0           0       0.000 ltr
  48                   JUNCTION     0.000    0.000     0  00:00           0           0       0.000 ltr
  49                   JUNCTION     0.000    0.000     0  00:00           0           0       0.000 ltr
  50                   JUNCTION     0.000    0.000     0  00:00           0           0       0.000 ltr
  51                   JUNCTION     0.000    0.000     0  00:00           0           0       0.000 ltr
  52                   JUNCTION     0.000    0.000     0  00:00           0           0       0.000 ltr
  53                   JUNCTION     0.000    0.000     0  00:00           0           0       0.000 ltr
  54                   JUNCTION     0.000    0.000     0  00:00           0           0       0.000 ltr
  55                   JUNCTION     0.000    0.000     0  00:00           0           0       0.000 ltr
  56a                  JUNCTION     0.000    0.000     0  00:00           0           0       0.000 ltr
  57                   JUNCTION     0.000    0.000     0  00:00           0           0       0.000 ltr
  58                   JUNCTION     0.000    0.000     0  00:00           0           0       0.000 ltr
  59                   JUNCTION     0.000    0.000     0  00:00           0           0       0.000 ltr
  60                   JUNCTION     0.000    0.000     0  00:00           0           0       0.000 ltr
  61                   JUNCTION     0.000    0.000     0  00:00           0           0       0.000 ltr
  62                   JUNCTION     0.000    0.000     0  00:00           0           0       0.000 ltr
  63                   JUNCTION     0.000    0.000     0  00:00           0           0       0.000 ltr
  64                   JUNCTION     0.000    0.000     0  00:00           0           0       0.000 ltr
  65                   JUNCTION     0.000    0.000     0  00:00           0           0       0.000 ltr
  66                   JUNCTION     0.000    0.000     0  00:00           0           0       0.000 ltr
  67                   JUNCTION     0.000    0.000     0  00:00           0           0       0.000 ltr
  68                   JUNCTION     0.000    0.000     0  00:00           0           0       0.000 ltr
  69                   JUNCTION     0.000    0.000     0  00:00           0           0       0.000 ltr
  70                   JUNCTION     0.000    0.000     0  00:00           0           0       0.000 ltr
  71                   JUNCTION     0.000    0.000     0  00:00           0           0       0.000 ltr
  72                   JUNCTION     0.000    0.000     0  00:00           0           0       0.000 ltr
  73                   JUNCTION     0.000    0.000     0  00:00           0           0       0.000 ltr
  74                   JUNCTION     0.000    0.000     0  00:00           0           0       0.000 ltr
  75                   JUNCTION     0.000    0.000     0  00:00           0           0       0.000 ltr
  76                   JUNCTION     0.000    0.000     0  00:00           0           0       0.000 ltr
  77                   JUNCTION     0.000    0.000     0  00:00           0           0       0.000 ltr
  78                   JUNCTION     0.000    0.000     0  00:00           0           0       0.000 ltr
  79                   JUNCTION     0.000    0.000     0  00:00           0           0       0.000 ltr
  80                   JUNCTION     0.000    0.000     0  00:00           0           0       0.000 ltr
  81                   JUNCTION     0.000    0.000     0  00:00           0           0       0.000 ltr
  82                   JUNCTION     0.000    0.000     0  00:00           0           0       0.000 ltr
  83                   JUNCTION     0.000    0.000     0  00:00           0           0       0.000 ltr
  84                   JUNCTION     0.000    0.000     0  00:00           0           0       0.000 ltr
  85                   JUNCTION     0.000    0.000     0  00:00           0           0       0.000 ltr
  86                   JUNCTION     0.000    0.000     0  00:00           0           0       0.000 ltr
  87                   JUNCTION     0.000    0.000     0  00:00           0           0       0.000 ltr
  88                   JUNCTION     0.000    0.000     0  00:00           0           0       0.000 ltr
  89                   JUNCTION     0.000    0.000     0  00:00           0           0       0.000 ltr
  90                   JUNCTION     0.000    0.000     0  00:00           0           0       0.000 ltr
  91                   JUNCTION     0.000    0.000     0  00:00           0           0       0.000 ltr
  92                   JUNCTION     0.000    0.000     0  00:00           0           0       0.000 ltr
  93                   JUNCTION     0.000    0.000     0  00:00           0           0       0.000 ltr
  94                   JUNCTION     0.000    0.000     0  00:00           0           0       0.000 ltr
  95                   JUNCTION     0.000    0.000     0  00:00           0           0       0.000 ltr
  96                   JUNCTION     0.000    0.000     0  00:00           0           0       0.000 ltr
  97                   JUNCTION     0.000    0.000     0  00:00           0           0       0.000 ltr
  98                   JUNCTION     0.000    0.000     0  00:00           0           0       0.000 ltr
  99                   JUNCTION     0.000    0.000     0  00:00           0           0       0.000 ltr
  100                  JUNCTION     0.000    0.000     0  00:00           0           0       0.000 ltr
  101                  JUNCTION     0.000    0.000     0  00:00           0           0       0.000 ltr
  102                  JUNCTION     0.000    0.000     0  00:00           0           0       0.000 ltr
  103                  JUNCTION     0.000    0.000     0  00:00           0           0       0.000 ltr
  104                  JUNCTION     0.000    0.000     0  00:00           0           0       0.000 ltr
  105                  JUNCTION     0.000    0.000     0  00:00           0           0       0.000 ltr
  106                  JUNCTION     0.000    0.000     0  00:00           0           0       0.000 ltr
  107                  JUNCTION     0.000    0.000     0  00:00           0           0       0.000 ltr
  108                  JUNCTION     0.000    0.000     0  00:00           0           0       0.000 ltr
  109                  JUNCTION     0.000    0.000     0  00:00           0           0       0.000 ltr
  110                  JUNCTION     0.000    0.000     0  00:00           0           0       0.000 ltr
  111                  JUNCTION     0.000    0.000     0  00:00           0           0       0.000 ltr
  112                  JUNCTION     0.000    0.000     0  00:00           0           0       0.000 ltr
  113                  JUNCTION     0.000    0.000     0  00:00           0           0       0.000 ltr
  114                  JUNCTION     0.000    0.000     0  00:00           0           0       0.000 ltr
  115                  JUNCTION     0.000    0.000     0  00:00           0           0       0.000 ltr
  116                  JUNCTION     0.000    0.000     0  00:00           0           0       0.000 ltr
  117                  JUNCTION     0.000    0.000     0  00:00           0           0       0.000 ltr
  118                  JUNCTION     0.000    0.000     0  00:00           0           0       0.000 ltr
  119                  JUNCTION     0.000    0.000     0  00:00           0           0       0.000 ltr
  120                  JUNCTION     0.000    0.000     0  00:00           0           0       0.000 ltr
  121                  JUNCTION     0.000    0.000     0  00:00           0           0       0.000 ltr
  122                  JUNCTION     0.000    0.000     0  00:00           0           0       0.000 ltr
  123                  JUNCTION     0.000    0.000     0  00:00           0           0       0.000 ltr
  124                  JUNCTION     0.000    0.000     0  00:00           0           0       0.000 ltr
  125                  JUNCTION     0.000    0.000     0  00:00           0           0       0.000 ltr
  126                  JUNCTION     0.000    0.000     0  00:00           0           0       0.000 ltr
  127                  JUNCTION     0.000    0.000     0  00:00           0           0       0.000 ltr
  128                  JUNCTION     0.000    0.000     0  00:00           0           0       0.000 ltr
  129                  JUNCTION     0.000    0.000     0  00:00           0           0       0.000 ltr
  130                  JUNCTION     0.000    0.000     0  00:00           0           0       0.000 ltr
  131                  JUNCTION     0.000    0.000     0  00:00           0           0       0.000 ltr
  132                  JUNCTION     0.000    0.000     0  00:00           0           0       0.000 ltr
  133                  JUNCTION     0.000    0.000     0  00:00           0           0       0.000 ltr
  134                  JUNCTION     0.000    0.000     0  00:00           0           0       0.000 ltr
  135                  JUNCTION     0.000    0.000     0  00:00           0           0       0.000 ltr
  136                  JUNCTION     0.000    0.000     0  00:00           0           0       0.000 ltr
  137                  JUNCTION     0.000    0.000     0  00:00           0           0       0.000 ltr
  138                  JUNCTION     0.000    0.000     0  00:00           0           0       0.000 ltr
  139                  JUNCTION     0.000    0.000     0  00:00           0           0       0.000 ltr
  140                  JUNCTION     0.000    0.000     0  00:00           0           0       0.000 ltr
  141                  JUNCTION     0.000    0.000     0  00:00           0           0       0.000 ltr
  142                  JUNCTION     0.000    0.000     0  00:00           0           0       0.000 ltr
  143                  JUNCTION     0.000    0.000     0  00:00           0           0       0.000 ltr
  144                  JUNCTION     0.000    0.000     0  00:00           0           0       0.000 ltr
  145                  JUNCTION     0.000    0.000     0  00:00           0           0       0.000 ltr
  146                  JUNCTION     0.000    0.000     0  00:00           0           0       0.000 ltr
  147                  JUNCTION     0.000    0.000     0  00:00           0           0       0.000 ltr
  148                  JUNCTION     0.000    0.000     0  00:00           0           0       0.000 ltr
  149                  JUNCTION     0.000    0.000     0  00:00           0           0       0.000 ltr
  150                  JUNCTION     0.000    0.000     0  00:00           0           0       0.000 ltr
  151                  JUNCTION     0.000    0.000     0  00:00           0           0       0.000 ltr
  152                  JUNCTION     0.000    0.000     0  00:00           0           0       0.000 ltr
  153                  JUNCTION     0.000    0.000     0  00:00           0           0       0.000 ltr
  154                  JUNCTION     0.000    0.000     0  00:00           0           0       0.000 ltr
  155                  JUNCTION     0.000    0.000     0  00:00           0           0       0.000 ltr
  156                  JUNCTION     0.000    0.000     0  00:00           0           0       0.000 ltr
  157                  JUNCTION     0.000    0.000     0  00:00           0           0       0.000 ltr
  158                  JUNCTION     0.000    0.000     0  00:00           0           0       0.000 ltr
  159                  JUNCTION     0.000    0.000     0  00:00           0           0       0.000 ltr
  160                  JUNCTION     0.000    0.000     0  00:00           0           0       0.000 ltr
  161                  JUNCTION     0.000    0.000     0  00:00           0           0       0.000 ltr
  162                  JUNCTION     0.000    0.000     0  00:00           0           0       0.000 ltr
  163                  JUNCTION     0.000    0.000     0  00:00           0           0       0.000 ltr
  164                  JUNCTION     0.000    0.000     0  00:00           0           0       0.000 ltr
  165                  JUNCTION     0.000    0.000     0  00:00           0           0       0.000 ltr
  166                  JUNCTION     0.000    0.000     0  00:00           0           0       0.000 ltr
  167                  JUNCTION     0.000    0.000     0  00:00           0           0       0.000 ltr
  168                  JUNCTION     0.000    0.000     0  00:00           0           0       0.000 ltr
  169                  JUNCTION     0.000    0.000     0  00:00           0           0       0.000 ltr
  170                  JUNCTION     0.000    0.000     0  00:00           0           0       0.000 ltr
  171                  JUNCTION     0.000    0.000     0  00:00           0           0       0.000 ltr
  172                  JUNCTION     0.000    0.000     0  00:00           0           0       0.000 ltr
  173                  JUNCTION     0.000    0.000     0  00:00           0           0       0.000 ltr
  174                  JUNCTION     0.000    0.000     0  00:00           0           0       0.000 ltr
  47a                  JUNCTION     0.000    0.000     0  00:00           0           0       0.000 ltr
  47b                  JUNCTION     0.000    0.000     0  00:00           0           0       0.000 ltr
  56b                  JUNCTION     0.000    0.000     0  00:00           0           0       0.000 ltr
  0                    OUTFALL      0.000    0.000     0  00:00           0           0       0.000 ltr
  
  
  **********************
  Node Surcharge Summary
  **********************
  
  No nodes were surcharged.
  
  
  *********************
  Node Flooding Summary
  *********************
  
  No nodes were flooded.
  
  
  ***********************
  Outfall Loading Summary
  ***********************
  
  -----------------------------------------------------------
                         Flow       Avg       Max       Total
                         Freq      Flow      Flow      Volume
  Outfall Node           Pcnt       CMS       CMS    10^6 ltr
  -----------------------------------------------------------
  0                      0.00     0.000     0.000       0.000
  -----------------------------------------------------------
  System                 0.00     0.000     0.000       0.000
  
  
  ********************
  Link Flow Summary
  ********************
  
  -----------------------------------------------------------------------------
                                 Maximum  Time of Max   Maximum    Max/    Max/
                                  |Flow|   Occurrence   |Veloc|    Full    Full
  Link                 Type          CMS  days hr:min     m/sec    Flow   Depth
  -----------------------------------------------------------------------------
  1                    CONDUIT     0.000     0  00:00      0.00    0.00    0.47
  2                    CONDUIT     0.000     0  00:00      0.00    0.00    0.00
  3                    CONDUIT     0.000     0  00:00      0.00    0.00    0.00
  4                    CONDUIT     0.000     0  00:00      0.00    0.00    0.00
  5                    CONDUIT     0.000     0  00:00      0.00    0.00    0.00
  6                    CONDUIT     0.000     0  00:00      0.00    0.00    0.00
  7                    CONDUIT     0.000     0  00:00      0.00    0.00    0.00
  8                    CONDUIT     0.000     0  00:00      0.00    0.00    0.00
  9                    CONDUIT     0.000     0  00:00      0.00    0.00    0.00
  10                   CONDUIT     0.000     0  00:00      0.00    0.00    0.00
  11                   CONDUIT     0.000     0  00:00      0.00    0.00    0.00
  12                   CONDUIT     0.000     0  00:00      0.00    0.00    0.00
  13                   CONDUIT     0.000     0  00:00      0.00    0.00    0.00
  14                   CONDUIT     0.000     0  00:00      0.00    0.00    0.00
  15                   CONDUIT     0.000     0  00:00      0.00    0.00    0.00
  16                   CONDUIT     0.000     0  00:00      0.00    0.00    0.00
  17                   CONDUIT     0.000     0  00:00      0.00    0.00    0.00
  18                   CONDUIT     0.000     0  00:00      0.00    0.00    0.00
  19                   CONDUIT     0.000     0  00:00      0.00    0.00    0.00
  20                   CONDUIT     0.000     0  00:00      0.00    0.00    0.00
  21                   CONDUIT     0.000     0  00:00      0.00    0.00    0.00
  22                   CONDUIT     0.000     0  00:00      0.00    0.00    0.00
  23                   CONDUIT     0.000     0  00:00      0.00    0.00    0.00
  24                   CONDUIT     0.000     0  00:00      0.00    0.00    0.00
  25                   CONDUIT     0.000     0  00:00      0.00    0.00    0.00
  26                   CONDUIT     0.000     0  00:00      0.00    0.00    0.00
  27                   CONDUIT     0.000     0  00:00      0.00    0.00    0.00
  28                   CONDUIT     0.000     0  00:00      0.00    0.00    0.00
  29                   CONDUIT     0.000     0  00:00      0.00    0.00    0.00
  30                   CONDUIT     0.000     0  00:00      0.00    0.00    0.00
  31                   CONDUIT     0.000     0  00:00      0.00    0.00    0.00
  32                   CONDUIT     0.000     0  00:00      0.00    0.00    0.00
  33                   CONDUIT     0.000     0  00:00      0.00    0.00    0.00
  34                   CONDUIT     0.000     0  00:00      0.00    0.00    0.00
  35                   CONDUIT     0.000     0  00:00      0.00    0.00    0.00
  36                   CONDUIT     0.000     0  00:00      0.00    0.00    0.00
  37                   CONDUIT     0.000     0  00:00      0.00    0.00    0.00
  38                   CONDUIT     0.000     0  00:00      0.00    0.00    0.00
  39                   CONDUIT     0.000     0  00:00      0.00    0.00    0.00
  40                   CHANNEL     0.000     0  00:00      0.00    0.00    0.00
  41                   CHANNEL     0.000     0  00:00      0.00    0.00    0.00
  42                   CONDUIT     0.000     0  00:00      0.00    0.00    0.00
  43                   CHANNEL     0.000     0  00:00      0.00    0.00    0.00
  44                   CHANNEL     0.000     0  00:00      0.00    0.00    0.00
  45                   CONDUIT     0.000     0  00:00      0.00    0.00    0.00
  46                   CHANNEL     0.000     0  00:00      0.00    0.00    0.00
  47                   CHANNEL     0.000     0  00:00      0.00    0.00    0.00
  47a                  CONDUIT     0.000     0  00:00      0.00    0.00    0.00
  49                   CHANNEL     0.000     0  00:00      0.00    0.00    0.00
  50                   CHANNEL     0.000     0  00:00      0.00    0.00    0.00
  51                   CHANNEL     0.000     0  00:00      0.00    0.00    0.00
  52                   CONDUIT     0.000     0  00:00      0.00    0.00    0.00
  53                   CHANNEL     0.000     0  00:00      0.00    0.00    0.00
  54                   CHANNEL     0.000     0  00:00      0.00    0.00    0.00
  55                   CONDUIT     0.000     0  00:00      0.00    0.00    0.00
  56a                  CHANNEL     0.000     0  00:00      0.00    0.00    0.00
  57                   CHANNEL     0.000     0  00:00      0.00    0.00    0.00
  58                   CHANNEL     0.000     0  00:00      0.00    0.00    0.00
  59                   CHANNEL     0.000     0  00:00      0.00    0.00    0.00
  60                   CHANNEL     0.000     0  00:00      0.00    0.00    0.00
  61                   CHANNEL     0.000     0  00:00      0.00    0.00    0.00
  62                   CHANNEL     0.000     0  00:00      0.00    0.00    0.00
  63                   CHANNEL     0.000     0  00:00      0.00    0.00    0.00
  64                   CHANNEL     0.000     0  00:00      0.00    0.00    0.00
  65                   CONDUIT     0.000     0  00:00      0.00    0.00    0.00
  66                   CHANNEL     0.000     0  00:00      0.00    0.00    0.00
  67                   CHANNEL     0.000     0  00:00      0.00    0.00    0.00
  68                   CHANNEL     0.000     0  00:00      0.00    0.00    0.00
  70                   CHANNEL     0.000     0  00:00      0.00    0.00    0.00
  71                   CHANNEL     0.000     0  00:00      0.00    0.00    0.00
  72                   CHANNEL     0.000     0  00:00      0.00    0.00    0.00
  73                   CHANNEL     0.000     0  00:00      0.00    0.00    0.00
  74                   CHANNEL     0.000     0  00:00      0.00    0.00    0.00
  75                   CHANNEL     0.000     0  00:00      0.00    0.00    0.00
  76                   CHANNEL     0.000     0  00:00      0.00    0.00    0.00
  77                   CHANNEL     0.000     0  00:00      0.00    0.00    0.00
  78                   CHANNEL     0.000     0  00:00      0.00    0.00    0.00
  79                   CHANNEL     0.000     0  00:00      0.00    0.00    0.00
  80                   CONDUIT     0.000     0  00:00      0.00    0.00    0.00
  81                   CONDUIT     0.000     0  00:00      0.00    0.00    0.00
  82                   CONDUIT     0.000     0  00:00      0.00    0.00    0.00
  83                   CONDUIT     0.000     0  00:00      0.00    0.00    0.00
  84                   CONDUIT     0.000     0  00:00      0.00    0.00    0.00
  85                   CONDUIT     0.000     0  00:00      0.00    0.00    0.00
  86                   CONDUIT     0.000     0  00:00      0.00    0.00    0.00
  87                   CONDUIT     0.000     0  00:00      0.00    0.00    0.00
  88                   CONDUIT     0.000     0  00:00      0.00    0.00    0.00
  89                   CONDUIT     0.000     0  00:00      0.00    0.00    0.00
  90                   CONDUIT     0.000     0  00:00      0.00    0.00    0.00
  91                   CONDUIT     0.000     0  00:00      0.00    0.00    0.00
  92                   CONDUIT     0.000     0  00:00      0.00    0.00    0.00
  93                   CONDUIT     0.000     0  00:00      0.00    0.00    0.00
  94                   CONDUIT     0.000     0  00:00      0.00    0.00    0.00
  95                   CONDUIT     0.000     0  00:00      0.00    0.00    0.00
  96                   CONDUIT     0.000     0  00:00      0.00    0.00    0.00
  97                   CONDUIT     0.000     0  00:00      0.00    0.00    0.00
  98                   CONDUIT     0.000     0  00:00      0.00    0.00    0.00
  99                   CONDUIT     0.000     0  00:00      0.00    0.00    0.00
  100                  CONDUIT     0.000     0  00:00      0.00    0.00    0.00
  101                  CONDUIT     0.000     0  00:00      0.00    0.00    0.00
  102                  CONDUIT     0.000     0  00:00      0.00    0.00    0.00
  103                  CONDUIT     0.000     0  00:00      0.00    0.00    0.00
  104                  CONDUIT     0.000     0  00:00      0.00    0.00    0.00
  105                  CONDUIT     0.000     0  00:00      0.00    0.00    0.00
  106                  CONDUIT     0.000     0  00:00      0.00    0.00    0.00
  107                  CONDUIT     0.000     0  00:00      0.00    0.00    0.00
  108                  CONDUIT     0.000     0  00:00      0.00    0.00    0.00
  109                  CONDUIT     0.000     0  00:00      0.00    0.00    0.00
  110                  CONDUIT     0.000     0  00:00      0.00    0.00    0.00
  111                  CONDUIT     0.000     0  00:00      0.00    0.00    0.00
  112                  CONDUIT     0.000     0  00:00      0.00    0.00    0.00
  113                  CONDUIT     0.000     0  00:00      0.00    0.00    0.00
  114                  CONDUIT     0.000     0  00:00      0.00    0.00    0.00
  115                  CONDUIT     0.000     0  00:00      0.00    0.00    0.00
  116                  CONDUIT     0.000     0  00:00      0.00    0.00    0.00
  117                  CONDUIT     0.000     0  00:00      0.00    0.00    0.00
  118                  CONDUIT     0.000     0  00:00      0.00    0.00    0.00
  119                  CONDUIT     0.000     0  00:00      0.00    0.00    0.00
  120                  CONDUIT     0.000     0  00:00      0.00    0.00    0.00
  121                  CONDUIT     0.000     0  00:00      0.00    0.00    0.00
  122                  CONDUIT     0.000     0  00:00      0.00    0.00    0.00
  123                  CONDUIT     0.000     0  00:00      0.00    0.00    0.00
  124                  CONDUIT     0.000     0  00:00      0.00    0.00    0.00
  125                  CONDUIT     0.000     0  00:00      0.00    0.00    0.00
  126                  CONDUIT     0.000     0  00:00      0.00    0.00    0.00
  127                  CONDUIT     0.000     0  00:00      0.00    0.00    0.00
  128                  CONDUIT     0.000     0  00:00      0.00    0.00    0.00
  129                  CONDUIT     0.000     0  00:00      0.00    0.00    0.00
  130                  CONDUIT     0.000     0  00:00      0.00    0.00    0.00
  131                  CONDUIT     0.000     0  00:00      0.00    0.00    0.00
  132                  CONDUIT     0.000     0  00:00      0.00    0.00    0.00
  133                  CONDUIT     0.000     0  00:00      0.00    0.00    0.00
  134                  CONDUIT     0.000     0  00:00      0.00    0.00    0.00
  135                  CONDUIT     0.000     0  00:00      0.00    0.00    0.00
  136                  CONDUIT     0.000     0  00:00      0.00    0.00    0.00
  137                  CONDUIT     0.000     0  00:00      0.00    0.00    0.00
  138                  CONDUIT     0.000     0  00:00      0.00    0.00    0.00
  139                  CONDUIT     0.000     0  00:00      0.00    0.00    0.00
  140                  CONDUIT     0.000     0  00:00      0.00    0.00    0.00
  141                  CONDUIT     0.000     0  00:00      0.00    0.00    0.00
  142                  CONDUIT     0.000     0  00:00      0.00    0.00    0.00
  143                  CONDUIT     0.000     0  00:00      0.00    0.00    0.00
  144                  CONDUIT     0.000     0  00:00      0.00    0.00    0.00
  145                  CONDUIT     0.000     0  00:00      0.00    0.00    0.00
  146                  CONDUIT     0.000     0  00:00      0.00    0.00    0.00
  147                  CONDUIT     0.000     0  00:00      0.00    0.00    0.00
  148                  CONDUIT     0.000     0  00:00      0.00    0.00    0.00
  149                  CONDUIT     0.000     0  00:00      0.00    0.00    0.00
  150                  CONDUIT     0.000     0  00:00      0.00    0.00    0.00
  151                  CONDUIT     0.000     0  00:00      0.00    0.00    0.00
  152                  CONDUIT     0.000     0  00:00      0.00    0.00    0.00
  153                  CONDUIT     0.000     0  00:00      0.00    0.00    0.00
  154                  CONDUIT     0.000     0  00:00      0.00    0.00    0.00
  155                  CONDUIT     0.000     0  00:00      0.00    0.00    0.00
  156                  CONDUIT     0.000     0  00:00      0.00    0.00    0.00
  157                  CONDUIT     0.000     0  00:00      0.00    0.00    0.00
  158                  CONDUIT     0.000     0  00:00      0.00    0.00    0.00
  159                  CONDUIT     0.000     0  00:00      0.00    0.00    0.00
  160                  CONDUIT     0.000     0  00:00      0.00    0.00    0.00
  161                  CONDUIT     0.000     0  00:00      0.00    0.00    0.00
  162                  CONDUIT     0.000     0  00:00      0.00    0.00    0.00
  163                  CONDUIT     0.000     0  00:00      0.00    0.00    0.00
  164                  CONDUIT     0.000     0  00:00      0.00    0.00    0.00
  165                  CONDUIT     0.000     0  00:00      0.00    0.00    0.00
  166                  CONDUIT     0.000     0  00:00      0.00    0.00    0.00
  167                  CONDUIT     0.000     0  00:00      0.00    0.00    0.00
  168                  CONDUIT     0.000     0  00:00      0.00    0.00    0.00
  169                  CONDUIT     0.000     0  00:00      0.00    0.00    0.00
  170                  CONDUIT     0.000     0  00:00      0.00    0.00    0.00
  171                  CONDUIT     0.000     0  00:00      0.00    0.00    0.00
  172                  CONDUIT     0.000     0  00:00      0.00    0.00    0.00
  173                  CONDUIT     0.000     0  00:00      0.00    0.00    0.00
  174                  CONDUIT     0.000     0  00:00      0.00    0.00    0.00
  47b                  CONDUIT     0.000     0  00:00      0.00    0.00    0.00
  48                   CONDUIT     0.000     0  00:00      0.00    0.00    0.00
  56                   CONDUIT     0.000     0  00:00      0.00    0.00    0.00
  80-a                 CONDUIT     0.000     0  00:00      0.00    0.00    0.00
  81-a                 CONDUIT     0.000     0  00:00      0.00    0.00    0.00
  82-a                 CONDUIT     0.000     0  00:00      0.00    0.00    0.00
  83-a                 CONDUIT     0.000     0  00:00      0.00    0.00    0.00
  84-a                 CONDUIT     0.000     0  00:00      0.00    0.00    0.00
  85-a                 CONDUIT     0.000     0  00:00      0.00    0.00    0.00
  86-a                 CONDUIT     0.000     0  00:00      0.00    0.00    0.00
  87-a                 CONDUIT     0.000     0  00:00      0.00    0.00    0.00
  88-a                 CONDUIT     0.000     0  00:00      0.00    0.00    0.00
  89-a                 CONDUIT     0.000     0  00:00      0.00    0.00    0.00
  90-a                 CONDUIT     0.000     0  00:00      0.00    0.00    0.00
  69                   CONDUIT     0.000     0  00:00      0.00    0.00    0.00
  
  
  ***************************
  Flow Classification Summary
  ***************************
  
  -------------------------------------------------------------------------------------
                      Adjusted    ---------- Fraction of Time in Flow Class ---------- 
                       /Actual         Up    Down  Sub   Sup   Up    Down  Norm  Inlet 
  Conduit               Length    Dry  Dry   Dry   Crit  Crit  Crit  Crit  Ltd   Ctrl  
  -------------------------------------------------------------------------------------
  1                       1.00   0.00  1.00  0.00  0.00  0.00  0.00  0.00  0.00  0.00
  2                       1.00   1.00  0.00  0.00  0.00  0.00  0.00  0.00  0.00  0.00
  3                       1.00   1.00  0.00  0.00  0.00  0.00  0.00  0.00  0.00  0.00
  4                       1.00   1.00  0.00  0.00  0.00  0.00  0.00  0.00  0.00  0.00
  5                       1.00   1.00  0.00  0.00  0.00  0.00  0.00  0.00  0.00  0.00
  6                       1.00   1.00  0.00  0.00  0.00  0.00  0.00  0.00  0.00  0.00
  7                       1.00   1.00  0.00  0.00  0.00  0.00  0.00  0.00  0.00  0.00
  8                       1.00   1.00  0.00  0.00  0.00  0.00  0.00  0.00  0.00  0.00
  9                       1.00   1.00  0.00  0.00  0.00  0.00  0.00  0.00  0.00  0.00
  10                      1.00   1.00  0.00  0.00  0.00  0.00  0.00  0.00  0.00  0.00
  11                      1.00   1.00  0.00  0.00  0.00  0.00  0.00  0.00  0.00  0.00
  12                      1.00   1.00  0.00  0.00  0.00  0.00  0.00  0.00  0.00  0.00
  13                      1.00   1.00  0.00  0.00  0.00  0.00  0.00  0.00  0.00  0.00
  14                      1.00   1.00  0.00  0.00  0.00  0.00  0.00  0.00  0.00  0.00
  15                      1.00   1.00  0.00  0.00  0.00  0.00  0.00  0.00  0.00  0.00
  16                      1.00   1.00  0.00  0.00  0.00  0.00  0.00  0.00  0.00  0.00
  17                      1.00   1.00  0.00  0.00  0.00  0.00  0.00  0.00  0.00  0.00
  18                      1.00   1.00  0.00  0.00  0.00  0.00  0.00  0.00  0.00  0.00
  19                      1.00   1.00  0.00  0.00  0.00  0.00  0.00  0.00  0.00  0.00
  20                      1.00   1.00  0.00  0.00  0.00  0.00  0.00  0.00  0.00  0.00
  21                      1.00   1.00  0.00  0.00  0.00  0.00  0.00  0.00  0.00  0.00
  22                      1.00   1.00  0.00  0.00  0.00  0.00  0.00  0.00  0.00  0.00
  23                      1.00   1.00  0.00  0.00  0.00  0.00  0.00  0.00  0.00  0.00
  24                      1.00   1.00  0.00  0.00  0.00  0.00  0.00  0.00  0.00  0.00
  25                      1.00   1.00  0.00  0.00  0.00  0.00  0.00  0.00  0.00  0.00
  26                      1.00   1.00  0.00  0.00  0.00  0.00  0.00  0.00  0.00  0.00
  27                      1.00   1.00  0.00  0.00  0.00  0.00  0.00  0.00  0.00  0.00
  28                      1.00   1.00  0.00  0.00  0.00  0.00  0.00  0.00  0.00  0.00
  29                      1.00   1.00  0.00  0.00  0.00  0.00  0.00  0.00  0.00  0.00
  30                      1.00   1.00  0.00  0.00  0.00  0.00  0.00  0.00  0.00  0.00
  31                      1.00   1.00  0.00  0.00  0.00  0.00  0.00  0.00  0.00  0.00
  32                      1.00   1.00  0.00  0.00  0.00  0.00  0.00  0.00  0.00  0.00
  33                      1.00   1.00  0.00  0.00  0.00  0.00  0.00  0.00  0.00  0.00
  34                      1.00   1.00  0.00  0.00  0.00  0.00  0.00  0.00  0.00  0.00
  35                      1.00   1.00  0.00  0.00  0.00  0.00  0.00  0.00  0.00  0.00
  36                      1.00   1.00  0.00  0.00  0.00  0.00  0.00  0.00  0.00  0.00
  37                      1.00   1.00  0.00  0.00  0.00  0.00  0.00  0.00  0.00  0.00
  38                      1.00   1.00  0.00  0.00  0.00  0.00  0.00  0.00  0.00  0.00
  39                      1.00   1.00  0.00  0.00  0.00  0.00  0.00  0.00  0.00  0.00
  40                      1.00   1.00  0.00  0.00  0.00  0.00  0.00  0.00  0.00  0.00
  41                      1.00   1.00  0.00  0.00  0.00  0.00  0.00  0.00  0.00  0.00
  42                      1.00   1.00  0.00  0.00  0.00  0.00  0.00  0.00  0.00  0.00
  43                      1.00   1.00  0.00  0.00  0.00  0.00  0.00  0.00  0.00  0.00
  44                      1.00   1.00  0.00  0.00  0.00  0.00  0.00  0.00  0.00  0.00
  45                      1.00   1.00  0.00  0.00  0.00  0.00  0.00  0.00  0.00  0.00
  46                      1.00   1.00  0.00  0.00  0.00  0.00  0.00  0.00  0.00  0.00
  47                      1.00   1.00  0.00  0.00  0.00  0.00  0.00  0.00  0.00  0.00
  47a                     1.00   1.00  0.00  0.00  0.00  0.00  0.00  0.00  0.00  0.00
  49                      1.00   1.00  0.00  0.00  0.00  0.00  0.00  0.00  0.00  0.00
  50                      1.00   1.00  0.00  0.00  0.00  0.00  0.00  0.00  0.00  0.00
  51                      1.00   1.00  0.00  0.00  0.00  0.00  0.00  0.00  0.00  0.00
  52                      1.00   1.00  0.00  0.00  0.00  0.00  0.00  0.00  0.00  0.00
  53                      1.00   1.00  0.00  0.00  0.00  0.00  0.00  0.00  0.00  0.00
  54                      1.00   1.00  0.00  0.00  0.00  0.00  0.00  0.00  0.00  0.00
  55                      1.00   1.00  0.00  0.00  0.00  0.00  0.00  0.00  0.00  0.00
  56a                     1.00   1.00  0.00  0.00  0.00  0.00  0.00  0.00  0.00  0.00
  57                      1.00   1.00  0.00  0.00  0.00  0.00  0.00  0.00  0.00  0.00
  58                      1.00   1.00  0.00  0.00  0.00  0.00  0.00  0.00  0.00  0.00
  59                      1.00   1.00  0.00  0.00  0.00  0.00  0.00  0.00  0.00  0.00
  60                      1.00   1.00  0.00  0.00  0.00  0.00  0.00  0.00  0.00  0.00
  61                      1.00   1.00  0.00  0.00  0.00  0.00  0.00  0.00  0.00  0.00
  62                      1.00   1.00  0.00  0.00  0.00  0.00  0.00  0.00  0.00  0.00
  63                      1.00   1.00  0.00  0.00  0.00  0.00  0.00  0.00  0.00  0.00
  64                      1.00   1.00  0.00  0.00  0.00  0.00  0.00  0.00  0.00  0.00
  65                      1.00   1.00  0.00  0.00  0.00  0.00  0.00  0.00  0.00  0.00
  66                      1.00   1.00  0.00  0.00  0.00  0.00  0.00  0.00  0.00  0.00
  67                      1.00   1.00  0.00  0.00  0.00  0.00  0.00  0.00  0.00  0.00
  68                      1.00   1.00  0.00  0.00  0.00  0.00  0.00  0.00  0.00  0.00
  70                      1.00   1.00  0.00  0.00  0.00  0.00  0.00  0.00  0.00  0.00
  71                      1.00   1.00  0.00  0.00  0.00  0.00  0.00  0.00  0.00  0.00
  72                      1.00   1.00  0.00  0.00  0.00  0.00  0.00  0.00  0.00  0.00
  73                      1.00   1.00  0.00  0.00  0.00  0.00  0.00  0.00  0.00  0.00
  74                      1.00   1.00  0.00  0.00  0.00  0.00  0.00  0.00  0.00  0.00
  75                      1.00   1.00  0.00  0.00  0.00  0.00  0.00  0.00  0.00  0.00
  76                      1.00   1.00  0.00  0.00  0.00  0.00  0.00  0.00  0.00  0.00
  77                      1.00   1.00  0.00  0.00  0.00  0.00  0.00  0.00  0.00  0.00
  78                      1.00   1.00  0.00  0.00  0.00  0.00  0.00  0.00  0.00  0.00
  79                      1.00   1.00  0.00  0.00  0.00  0.00  0.00  0.00  0.00  0.00
  80                      1.00   1.00  0.00  0.00  0.00  0.00  0.00  0.00  0.00  0.00
  81                      1.00   1.00  0.00  0.00  0.00  0.00  0.00  0.00  0.00  0.00
  82                      1.00   1.00  0.00  0.00  0.00  0.00  0.00  0.00  0.00  0.00
  83                      1.00   1.00  0.00  0.00  0.00  0.00  0.00  0.00  0.00  0.00
  84                      1.00   1.00  0.00  0.00  0.00  0.00  0.00  0.00  0.00  0.00
  85                      1.00   1.00  0.00  0.00  0.00  0.00  0.00  0.00  0.00  0.00
  86                      1.00   1.00  0.00  0.00  0.00  0.00  0.00  0.00  0.00  0.00
  87                      1.00   1.00  0.00  0.00  0.00  0.00  0.00  0.00  0.00  0.00
  88                      1.00   1.00  0.00  0.00  0.00  0.00  0.00  0.00  0.00  0.00
  89                      1.00   1.00  0.00  0.00  0.00  0.00  0.00  0.00  0.00  0.00
  90                      1.00   1.00  0.00  0.00  0.00  0.00  0.00  0.00  0.00  0.00
  91                      1.00   1.00  0.00  0.00  0.00  0.00  0.00  0.00  0.00  0.00
  92                      1.00   1.00  0.00  0.00  0.00  0.00  0.00  0.00  0.00  0.00
  93                      1.00   1.00  0.00  0.00  0.00  0.00  0.00  0.00  0.00  0.00
  94                      1.00   1.00  0.00  0.00  0.00  0.00  0.00  0.00  0.00  0.00
  95                      1.00   1.00  0.00  0.00  0.00  0.00  0.00  0.00  0.00  0.00
  96                      1.00   1.00  0.00  0.00  0.00  0.00  0.00  0.00  0.00  0.00
  97                      1.00   1.00  0.00  0.00  0.00  0.00  0.00  0.00  0.00  0.00
  98                      1.00   1.00  0.00  0.00  0.00  0.00  0.00  0.00  0.00  0.00
  99                      1.00   1.00  0.00  0.00  0.00  0.00  0.00  0.00  0.00  0.00
  100                     1.00   1.00  0.00  0.00  0.00  0.00  0.00  0.00  0.00  0.00
  101                     1.00   1.00  0.00  0.00  0.00  0.00  0.00  0.00  0.00  0.00
  102                     1.00   1.00  0.00  0.00  0.00  0.00  0.00  0.00  0.00  0.00
  103                     1.00   1.00  0.00  0.00  0.00  0.00  0.00  0.00  0.00  0.00
  104                     1.00   1.00  0.00  0.00  0.00  0.00  0.00  0.00  0.00  0.00
  105                     1.00   1.00  0.00  0.00  0.00  0.00  0.00  0.00  0.00  0.00
  106                     1.00   1.00  0.00  0.00  0.00  0.00  0.00  0.00  0.00  0.00
  107                     1.00   1.00  0.00  0.00  0.00  0.00  0.00  0.00  0.00  0.00
  108                     1.00   1.00  0.00  0.00  0.00  0.00  0.00  0.00  0.00  0.00
  109                     1.00   1.00  0.00  0.00  0.00  0.00  0.00  0.00  0.00  0.00
  110                     1.00   1.00  0.00  0.00  0.00  0.00  0.00  0.00  0.00  0.00
  111                     1.00   1.00  0.00  0.00  0.00  0.00  0.00  0.00  0.00  0.00
  112                     1.00   1.00  0.00  0.00  0.00  0.00  0.00  0.00  0.00  0.00
  113                     1.00   1.00  0.00  0.00  0.00  0.00  0.00  0.00  0.00  0.00
  114                     1.00   1.00  0.00  0.00  0.00  0.00  0.00  0.00  0.00  0.00
  115                     1.00   1.00  0.00  0.00  0.00  0.00  0.00  0.00  0.00  0.00
  116                     1.00   1.00  0.00  0.00  0.00  0.00  0.00  0.00  0.00  0.00
  117                     1.00   1.00  0.00  0.00  0.00  0.00  0.00  0.00  0.00  0.00
  118                     1.00   1.00  0.00  0.00  0.00  0.00  0.00  0.00  0.00  0.00
  119                     1.00   1.00  0.00  0.00  0.00  0.00  0.00  0.00  0.00  0.00
  120                     1.00   1.00  0.00  0.00  0.00  0.00  0.00  0.00  0.00  0.00
  121                     1.00   1.00  0.00  0.00  0.00  0.00  0.00  0.00  0.00  0.00
  122                     1.00   1.00  0.00  0.00  0.00  0.00  0.00  0.00  0.00  0.00
  123                     1.00   1.00  0.00  0.00  0.00  0.00  0.00  0.00  0.00  0.00
  124                     1.00   1.00  0.00  0.00  0.00  0.00  0.00  0.00  0.00  0.00
  125                     1.00   1.00  0.00  0.00  0.00  0.00  0.00  0.00  0.00  0.00
  126                     1.00   1.00  0.00  0.00  0.00  0.00  0.00  0.00  0.00  0.00
  127                     1.00   1.00  0.00  0.00  0.00  0.00  0.00  0.00  0.00  0.00
  128                     1.00   1.00  0.00  0.00  0.00  0.00  0.00  0.00  0.00  0.00
  129                     1.00   1.00  0.00  0.00  0.00  0.00  0.00  0.00  0.00  0.00
  130                     1.00   1.00  0.00  0.00  0.00  0.00  0.00  0.00  0.00  0.00
  131                     1.00   1.00  0.00  0.00  0.00  0.00  0.00  0.00  0.00  0.00
  132                     1.00   1.00  0.00  0.00  0.00  0.00  0.00  0.00  0.00  0.00
  133                     1.00   1.00  0.00  0.00  0.00  0.00  0.00  0.00  0.00  0.00
  134                     1.00   1.00  0.00  0.00  0.00  0.00  0.00  0.00  0.00  0.00
  135                     1.00   1.00  0.00  0.00  0.00  0.00  0.00  0.00  0.00  0.00
  136                     1.00   1.00  0.00  0.00  0.00  0.00  0.00  0.00  0.00  0.00
  137                     1.00   1.00  0.00  0.00  0.00  0.00  0.00  0.00  0.00  0.00
  138                     1.00   1.00  0.00  0.00  0.00  0.00  0.00  0.00  0.00  0.00
  139                     1.00   1.00  0.00  0.00  0.00  0.00  0.00  0.00  0.00  0.00
  140                     1.00   1.00  0.00  0.00  0.00  0.00  0.00  0.00  0.00  0.00
  141                     1.00   1.00  0.00  0.00  0.00  0.00  0.00  0.00  0.00  0.00
  142                     1.00   1.00  0.00  0.00  0.00  0.00  0.00  0.00  0.00  0.00
  143                     1.00   1.00  0.00  0.00  0.00  0.00  0.00  0.00  0.00  0.00
  144                     1.00   1.00  0.00  0.00  0.00  0.00  0.00  0.00  0.00  0.00
  145                     1.00   1.00  0.00  0.00  0.00  0.00  0.00  0.00  0.00  0.00
  146                     1.00   1.00  0.00  0.00  0.00  0.00  0.00  0.00  0.00  0.00
  147                     1.00   1.00  0.00  0.00  0.00  0.00  0.00  0.00  0.00  0.00
  148                     1.00   1.00  0.00  0.00  0.00  0.00  0.00  0.00  0.00  0.00
  149                     1.00   1.00  0.00  0.00  0.00  0.00  0.00  0.00  0.00  0.00
  150                     1.00   1.00  0.00  0.00  0.00  0.00  0.00  0.00  0.00  0.00
  151                     1.00   1.00  0.00  0.00  0.00  0.00  0.00  0.00  0.00  0.00
  152                     1.00   1.00  0.00  0.00  0.00  0.00  0.00  0.00  0.00  0.00
  153                     1.00   1.00  0.00  0.00  0.00  0.00  0.00  0.00  0.00  0.00
  154                     1.00   1.00  0.00  0.00  0.00  0.00  0.00  0.00  0.00  0.00
  155                     1.00   1.00  0.00  0.00  0.00  0.00  0.00  0.00  0.00  0.00
  156                     1.00   1.00  0.00  0.00  0.00  0.00  0.00  0.00  0.00  0.00
  157                     1.00   1.00  0.00  0.00  0.00  0.00  0.00  0.00  0.00  0.00
  158                     1.00   1.00  0.00  0.00  0.00  0.00  0.00  0.00  0.00  0.00
  159                     1.00   1.00  0.00  0.00  0.00  0.00  0.00  0.00  0.00  0.00
  160                     1.00   1.00  0.00  0.00  0.00  0.00  0.00  0.00  0.00  0.00
  161                     1.00   1.00  0.00  0.00  0.00  0.00  0.00  0.00  0.00  0.00
  162                     1.00   1.00  0.00  0.00  0.00  0.00  0.00  0.00  0.00  0.00
  163                     1.00   1.00  0.00  0.00  0.00  0.00  0.00  0.00  0.00  0.00
  164                     1.00   1.00  0.00  0.00  0.00  0.00  0.00  0.00  0.00  0.00
  165                     1.00   1.00  0.00  0.00  0.00  0.00  0.00  0.00  0.00  0.00
  166                     1.00   1.00  0.00  0.00  0.00  0.00  0.00  0.00  0.00  0.00
  167                     1.00   1.00  0.00  0.00  0.00  0.00  0.00  0.00  0.00  0.00
  168                     1.00   1.00  0.00  0.00  0.00  0.00  0.00  0.00  0.00  0.00
  169                     1.00   1.00  0.00  0.00  0.00  0.00  0.00  0.00  0.00  0.00
  170                     1.00   1.00  0.00  0.00  0.00  0.00  0.00  0.00  0.00  0.00
  171                     1.00   1.00  0.00  0.00  0.00  0.00  0.00  0.00  0.00  0.00
  172                     1.00   1.00  0.00  0.00  0.00  0.00  0.00  0.00  0.00  0.00
  173                     1.00   1.00  0.00  0.00  0.00  0.00  0.00  0.00  0.00  0.00
  174                     1.00   1.00  0.00  0.00  0.00  0.00  0.00  0.00  0.00  0.00
  47b                     1.00   1.00  0.00  0.00  0.00  0.00  0.00  0.00  0.00  0.00
  48                      1.00   1.00  0.00  0.00  0.00  0.00  0.00  0.00  0.00  0.00
  56                      1.00   1.00  0.00  0.00  0.00  0.00  0.00  0.00  0.00  0.00
  80-a                    1.00   1.00  0.00  0.00  0.00  0.00  0.00  0.00  0.00  0.00
  81-a                    1.00   1.00  0.00  0.00  0.00  0.00  0.00  0.00  0.00  0.00
  82-a                    1.00   1.00  0.00  0.00  0.00  0.00  0.00  0.00  0.00  0.00
  83-a                    1.00   1.00  0.00  0.00  0.00  0.00  0.00  0.00  0.00  0.00
  84-a                    1.00   1.00  0.00  0.00  0.00  0.00  0.00  0.00  0.00  0.00
  85-a                    1.00   1.00  0.00  0.00  0.00  0.00  0.00  0.00  0.00  0.00
  86-a                    1.00   1.00  0.00  0.00  0.00  0.00  0.00  0.00  0.00  0.00
  87-a                    1.00   1.00  0.00  0.00  0.00  0.00  0.00  0.00  0.00  0.00
  88-a                    1.00   1.00  0.00  0.00  0.00  0.00  0.00  0.00  0.00  0.00
  89-a                    1.00   1.00  0.00  0.00  0.00  0.00  0.00  0.00  0.00  0.00
  90-a                    1.00   1.00  0.00  0.00  0.00  0.00  0.00  0.00  0.00  0.00
  69                      1.00   1.00  0.00  0.00  0.00  0.00  0.00  0.00  0.00  0.00
  
  
  *************************
  Conduit Surcharge Summary
  *************************
  
  No conduits were surcharged.
  

  Analysis begun on:  Wed Aug 13 16:34:13 2014
  Analysis ended on:  Wed Aug 13 16:34:14 2014
  Total elapsed time: 00:00:01