
  EPA STORM WATER MANAGEMENT MODEL - VERSION 5.1 (Build 5.1.006)
  --------------------------------------------------------------

  
  ERROR 209: undefined object 300_main_street at line 41 of [SUBCATCHMENT] section:
  ws-1             300_main_street  1                0.45     20.56290054 47.33753481 8.152170181 0                        

  
  ERROR 209: undefined object 300_main_street at line 42 of [SUBCATCHMENT] section:
  ws-2             300_main_street  2                0.25     19.64690018 70.05753276 9.500300407 0                        

  
  ERROR 209: undefined object 300_main_street at line 43 of [SUBCATCHMENT] section:
  ws-3             300_main_street  3                9.68     45.66759873 126.1358292 3.848929882 0                        

  
  ERROR 209: undefined object 300_main_street at line 44 of [SUBCATCHMENT] section:
  ws-7             300_main_street  7                0.24     33.36059953 49.11671914 4.340370178 0                        

  
  ERROR 209: undefined object 300_main_street at line 45 of [SUBCATCHMENT] section:
  ws-8             300_main_street  8                0.91     45.10020065 41.48427072 9.031499863 0                        

  
  ERROR 209: undefined object 300_main_street at line 46 of [SUBCATCHMENT] section:
  ws-9             300_main_street  9                0.29     45.1841011 59.90807937 11.69110012 0                        

  
  ERROR 209: undefined object 300_main_street at line 47 of [SUBCATCHMENT] section:
  ws-10            300_main_street  10               0.28     76.62149813 41.83800813 15.22560024 0                        

  
  ERROR 209: undefined object 300_main_street at line 48 of [SUBCATCHMENT] section:
  ws-11            300_main_street  11               1.49     74.29199983 44.89466681 7.861609936 0                        

  
  ERROR 209: undefined object 300_main_street at line 49 of [SUBCATCHMENT] section:
  ws-12            300_main_street  12               0.36     68.7838974 52.05618439 5.263430119 0                        

  
  ERROR 209: undefined object 300_main_street at line 50 of [SUBCATCHMENT] section:
  ws-13            300_main_street  13               3.55     68.29669953 52.37254879 10.65820026 0                        

  
  ERROR 209: undefined object 300_main_street at line 51 of [SUBCATCHMENT] section:
  ws-14            300_main_street  14               0.21     67.47579955 51.47086912 5.047709942 0                        

  
  ERROR 209: undefined object 300_main_street at line 52 of [SUBCATCHMENT] section:
  ws-15            300_main_street  15               0.21     60.54980088 46.28723076 4.542170048 0                        

  
  ERROR 209: undefined object 300_main_street at line 53 of [SUBCATCHMENT] section:
  ws-16            300_main_street  16               0.3      70.35800173 30.85317029 14.77390003 0                        

  
  ERROR 209: undefined object 300_main_street at line 54 of [SUBCATCHMENT] section:
  ws-17            300_main_street  17               70.08    53.54800035 257.0751695 2.609719992 0                        

  
  ERROR 209: undefined object 300_main_street at line 55 of [SUBCATCHMENT] section:
  ws-18            300_main_street  18               0.17     72.76719665 35.77733025 21.5182991 0                        

  
  ERROR 209: undefined object 300_main_street at line 56 of [SUBCATCHMENT] section:
  ws-19            300_main_street  19               3.96     50.45980073 89.96324681 3.263870001 0                        

  
  ERROR 209: undefined object 300_main_street at line 57 of [SUBCATCHMENT] section:
  ws-20            300_main_street  20               13.84    51.480999 163.7190165 3.490649939 0                        

  
  ERROR 209: undefined object 300_main_street at line 58 of [SUBCATCHMENT] section:
  ws-21            300_main_street  21               0.6      32.3017006 41.50079454 4.972660065 0                        

  
  ERROR 209: undefined object 300_main_street at line 59 of [SUBCATCHMENT] section:
  ws-22            300_main_street  22               20.57    58.12969973 168.1220477 2.625370026 0                        

  
  ERROR 209: undefined object 300_main_street at line 60 of [SUBCATCHMENT] section:
  ws-23            300_main_street  23               0.72     40.57630158 26.14943253 3.370300055 0                        

  
  ERROR 209: undefined object 300_main_street at line 61 of [SUBCATCHMENT] section:
  ws-24            300_main_street  24               0.17     48.34949875 33.86982874 4.276309967 0                        

  
  ERROR 209: undefined object 300_main_street at line 62 of [SUBCATCHMENT] section:
  ws-25            300_main_street  25               3.29     52.13750075 57.47053483 4.260379791 0                        

  
  ERROR 209: undefined object 300_main_street at line 63 of [SUBCATCHMENT] section:
  ws-26            300_main_street  26               10.42    50.25709915 123.4738497 3.736730099 0                        

  
  ERROR 209: undefined object 300_main_street at line 64 of [SUBCATCHMENT] section:
  ws-27            300_main_street  27               0.47     33.875   50.43844211 3.540590048 0                        

  
  ERROR 209: undefined object 300_main_street at line 65 of [SUBCATCHMENT] section:
  ws-28            300_main_street  28               1        38.35749818 68.53940096 3.508729935 0                        

  
  ERROR 209: undefined object 300_main_street at line 66 of [SUBCATCHMENT] section:
  ws-29            300_main_street  29               1.35     21.03980064 65.41138085 5.919229984 0                        

  
  ERROR 209: undefined object 300_main_street at line 67 of [SUBCATCHMENT] section:
  ws-30            300_main_street  30               1.52     34.15990068 68.3101005 2.509759903 0                        

  
  ERROR 209: undefined object 300_main_street at line 68 of [SUBCATCHMENT] section:
  ws-31            300_main_street  31               0.35     14.67529964 33.41353383 2.76560998 0                        

  
  ERROR 209: undefined object 300_main_street at line 69 of [SUBCATCHMENT] section:
  ws-32            300_main_street  32               9.96     23.59329988 210.5098299 3.392750025 0                        

  
  ERROR 209: undefined object 300_main_street at line 70 of [SUBCATCHMENT] section:
  ws-35            300_main_street  35               0.89     3.614919903 75.04086509 2.535739899 0                        

  
  ERROR 209: undefined object 300_main_street at line 71 of [SUBCATCHMENT] section:
  ws-37            300_main_street  37               0.96     60.04190065 45.31102479 2.258160114 0                        

  
  ERROR 209: undefined object 300_main_street at line 72 of [SUBCATCHMENT] section:
  ws-38            300_main_street  38               0.99     51.73690035 89.48139028 1.737490058 0                        

  
  ERROR 209: undefined object 300_main_street at line 73 of [SUBCATCHMENT] section:
  ws-40            300_main_street  40               0.19     73.99539948 35.0900617 1.741250038 0                        

  
  ERROR 209: undefined object 300_main_street at line 74 of [SUBCATCHMENT] section:
  ws-41            300_main_street  41               3.01     81.1187973 71.65650586 2.862360001 0                        

  
  ERROR 209: undefined object 300_main_street at line 75 of [SUBCATCHMENT] section:
  ws-42            300_main_street  42               2.94     69.53900145 94.26075679 3.638689995 0                        

  
  ERROR 209: undefined object 300_main_street at line 76 of [SUBCATCHMENT] section:
  ws-43            300_main_street  43               0.75     54.88700105 59.72038543 4.148519993 0                        

  
  ERROR 209: undefined object 300_main_street at line 77 of [SUBCATCHMENT] section:
  ws-45            300_main_street  45               15.2     50.10639955 156.0417242 4.75661993 0                        

  
  ERROR 209: undefined object 300_main_street at line 78 of [SUBCATCHMENT] section:
  ws-46            300_main_street  46               17.26    75.1235962 92.03539494 3.586060047 0                        

  
  ERROR 209: undefined object 300_main_street at line 79 of [SUBCATCHMENT] section:
  ws-47            300_main_street  47               0.66     59.0768013 41.58763655 7.014130116 0                        

  
  ERROR 209: undefined object 300_main_street at line 80 of [SUBCATCHMENT] section:
  ws-48            300_main_street  48               0.27     70.96299745 34.18479937 6.371960163 0                        

  
  ERROR 209: undefined object 300_main_street at line 81 of [SUBCATCHMENT] section:
  ws-49            300_main_street  49               1.11     60.6814003 62.68166694 3.275650024 0                        

  
  ERROR 209: undefined object 300_main_street at line 82 of [SUBCATCHMENT] section:
  ws-50            300_main_street  50               0.63     68.4992981 32.15387253 4.595260143 0                        

  
  ERROR 209: undefined object 300_main_street at line 83 of [SUBCATCHMENT] section:
  ws-52            300_main_street  52               1.67     60.8634987 51.21374981 5.439819813 0                        

  
  ERROR 209: undefined object 300_main_street at line 84 of [SUBCATCHMENT] section:
  ws-53            300_main_street  53               7.8      54.67160035 99.72075506 4.494070053 0                        

  
  ERROR 209: undefined object 300_main_street at line 85 of [SUBCATCHMENT] section:
  ws-54            300_main_street  54               0.41     64.0837021 36.96822263 2.278150082 0                        

  
  ERROR 209: undefined object 300_main_street at line 86 of [SUBCATCHMENT] section:
  ws-55            300_main_street  55               11.6     48.94509888 137.5405896 5.446109772 0                        

  
  ERROR 209: undefined object 300_main_street at line 87 of [SUBCATCHMENT] section:
  ws-57            300_main_street  57               0.38     7.685709955 31.26565376 2.287559986 0                        

  
  ERROR 209: undefined object 300_main_street at line 88 of [SUBCATCHMENT] section:
  ws-58            300_main_street  58               2.56     31.40410043 72.34008765 3.068419933 0                        

  
  ERROR 209: undefined object 300_main_street at line 89 of [SUBCATCHMENT] section:
  ws-60            300_main_street  60               0.46     52.04130175 48.1843425 3.277889967 0                        

  
  ERROR 209: undefined object 300_main_street at line 90 of [SUBCATCHMENT] section:
  ws-61            300_main_street  61               0.78     54.39419938 43.9231954 5.364850044 0                        

  
  ERROR 209: undefined object 300_main_street at line 91 of [SUBCATCHMENT] section:
  ws-62            300_main_street  62               0.32     50.80619813 43.97693043 5.298950195 0                        

  
  ERROR 209: undefined object 300_main_street at line 92 of [SUBCATCHMENT] section:
  ws-63            300_main_street  63               3.65     62.24980165 76.39259212 6.406990051 0                        

  
  ERROR 209: undefined object 300_main_street at line 93 of [SUBCATCHMENT] section:
  ws-64            300_main_street  64               9.61     52.58620073 116.703611 4.800819874 0                        

  
  ERROR 209: undefined object 300_main_street at line 94 of [SUBCATCHMENT] section:
  ws-65            300_main_street  65               1.1      55.62450028 55.66404532 5.488949776 0                        

  
  ERROR 209: undefined object 300_main_street at line 95 of [SUBCATCHMENT] section:
  ws-66            300_main_street  66               15.06    53.15069963 184.3417502 6.144680023 0                        

  
  ERROR 209: undefined object 300_main_street at line 96 of [SUBCATCHMENT] section:
  ws-69            300_main_street  69               11.2     48.1473999 103.5629837 5.382410049 0                        

  
  ERROR 209: undefined object 300_main_street at line 97 of [SUBCATCHMENT] section:
  ws-70            300_main_street  70               1.47     54.50270083 41.79495623 5.028759956 0                        

  
  ERROR 209: undefined object 300_main_street at line 98 of [SUBCATCHMENT] section:
  ws-71            300_main_street  71               50.13    52.53020095 304.0142183 3.592259884 0                        

  
  ERROR 209: undefined object 300_main_street at line 99 of [SUBCATCHMENT] section:
  ws-73            300_main_street  73               0.7      61.27259828 45.99042036 4.124810219 0                        

  
  ERROR 209: undefined object 300_main_street at line 100 of [SUBCATCHMENT] section:
  ws-74            300_main_street  74               2.71     11.64630032 59.25299463 1.945129991 0                        

  
  ERROR 209: undefined object 300_main_street at line 101 of [SUBCATCHMENT] section:
  ws-75            300_main_street  75               0.67     8.596229555 52.22149392 1.940490007 0                        

  
  ERROR 209: undefined object 300_main_street at line 102 of [SUBCATCHMENT] section:
  ws-77            300_main_street  77               0.23     7.45593977 34.38382111 4.070960045 0                        

  
  ERROR 209: undefined object 300_main_street at line 103 of [SUBCATCHMENT] section:
  ws-78            300_main_street  78               2.71     33.96009828 55.55481034 5.255549908 0                        

  
  ERROR 209: undefined object 300_main_street at line 104 of [SUBCATCHMENT] section:
  ws-79            300_main_street  79               0.94     31.45420075 58.46386163 2.540960073 0                        

  
  ERROR 209: undefined object 300_main_street at line 105 of [SUBCATCHMENT] section:
  ws-80            300_main_street  80               0.06     38.6875  20.47129791 4.264110088 0                        

  
  ERROR 209: undefined object 300_main_street at line 106 of [SUBCATCHMENT] section:
  ws-81            300_main_street  81               1.42     37.39500045 26.22359822 5.518889904 0                        

  
  ERROR 209: undefined object 300_main_street at line 107 of [SUBCATCHMENT] section:
  ws-83            300_main_street  83               1.45     46.12129975 28.55876693 3.546299934 0                        

  
  ERROR 209: undefined object 300_main_street at line 108 of [SUBCATCHMENT] section:
  ws-84            300_main_street  84               133.71   36.10039903 554.7193236 3.558779955 0                        

  
  ERROR 209: undefined object 300_main_street at line 109 of [SUBCATCHMENT] section:
  ws-87            300_main_street  87               0.2      97.43240355 16.94706143 2.131249905 0                        

  
  ERROR 209: undefined object 300_main_street at line 110 of [SUBCATCHMENT] section:
  ws-88            300_main_street  88               4.15     68.93489838 73.46750561 4.950089931 0                        

  
  ERROR 209: undefined object 300_main_street at line 111 of [SUBCATCHMENT] section:
  ws-89            300_main_street  89               0.2      97.63059998 28.09600498 2.395319939 0                        

  
  ERROR 209: undefined object 300_main_street at line 112 of [SUBCATCHMENT] section:
  ws-90            300_main_street  90               0.03     97.52780153 10.13073413 1.156679988 0                        

  
  ERROR 209: undefined object 300_main_street at line 113 of [SUBCATCHMENT] section:
  ws-91            300_main_street  91               0.04     98.3042984 12.81180801 1.279680014 0                        

  
  ERROR 209: undefined object 300_main_street at line 114 of [SUBCATCHMENT] section:
  ws-92            300_main_street  92               0.12     92.01560213 18.8545756 2.68234992 0                        

  
  ERROR 209: undefined object 300_main_street at line 115 of [SUBCATCHMENT] section:
  ws-93            300_main_street  93               0.06     90.11289978 16.06755798 2.927659988 0                        

  
  ERROR 209: undefined object 300_main_street at line 116 of [SUBCATCHMENT] section:
  ws-94            300_main_street  94               1.56     90.4673996 38.0798931 3.487129927 0                        

  
  ERROR 209: undefined object 300_main_street at line 117 of [SUBCATCHMENT] section:
  ws-95            300_main_street  95               0.25     90.2193985 24.55841639 4.16546011 0                        

  
  ERROR 209: undefined object 300_main_street at line 118 of [SUBCATCHMENT] section:
  ws-96            300_main_street  96               0.07     96.6053009 21.35477533 5.01996994 0                        

  
  ERROR 209: undefined object 300_main_street at line 119 of [SUBCATCHMENT] section:
  ws-97            300_main_street  97               0.79     85.05079653 50.74016461 4.516940117 0                        

  
  ERROR 209: undefined object 300_main_street at line 120 of [SUBCATCHMENT] section:
  ws-98            300_main_street  98               0.76     79.26329805 54.12474819 6.230430126 0                        

  
  ERROR 209: undefined object 300_main_street at line 121 of [SUBCATCHMENT] section:
  ws-101           300_main_street  101              0.54     69.07260133 35.80132988 4.486269951 0                        

  
  ERROR 209: undefined object 300_main_street at line 122 of [SUBCATCHMENT] section:
  ws-102           300_main_street  102              0.48     70.86250305 44.03206655 3.915159941 0                        

  
  ERROR 209: undefined object 300_main_street at line 123 of [SUBCATCHMENT] section:
  ws-103           300_main_street  103              0.07     62.38959885 6.973547636 3.124340057 0                        

  
  ERROR 209: undefined object 300_main_street at line 124 of [SUBCATCHMENT] section:
  ws-105           300_main_street  105              0.33     71.2397995 43.58933171 1.905689955 0                        

  
  ERROR 209: undefined object 300_main_street at line 125 of [SUBCATCHMENT] section:
  ws-106           300_main_street  106              0.22     92.5959015 28.44188031 2.16685009 0                        

  
  ERROR 209: undefined object 300_main_street at line 126 of [SUBCATCHMENT] section:
  ws-107           300_main_street  107              0.25     89.90879823 37.46169067 2.492350101 0                        

  
  ERROR 209: undefined object 300_main_street at line 127 of [SUBCATCHMENT] section:
  ws-108           300_main_street  108              3.59     76.06659698 68.5443358 4.188439846 0                        

  
  ERROR 209: undefined object 300_main_street at line 128 of [SUBCATCHMENT] section:
  ws-112           300_main_street  112              0.85     62.78039933 47.69791442 6.076950073 0                        

  
  ERROR 209: undefined object 300_main_street at line 129 of [SUBCATCHMENT] section:
  ws-114           300_main_street  114              0.05     47.5660019 15.69186189 5.38736  0                        

  
  ERROR 209: undefined object 300_main_street at line 130 of [SUBCATCHMENT] section:
  ws-115           300_main_street  115              0.06     63.32310105 12.95843107 5.38736  0                        

  
  ERROR 209: undefined object 300_main_street at line 131 of [SUBCATCHMENT] section:
  ws-116           300_main_street  116              22.94    60.77389908 205.9824111 4.697770119 0                        

  
  ERROR 209: undefined object 300_main_street at line 132 of [SUBCATCHMENT] section:
  ws-118           300_main_street  118              0.04     46.0929985 12.2532558 6.517809868 0                        

  
  ERROR 209: undefined object 300_main_street at line 133 of [SUBCATCHMENT] section:
  ws-119           300_main_street  119              0.76     75.31790163 29.60821656 6.13312006 0                        

  
  ERROR 209: undefined object 300_main_street at line 134 of [SUBCATCHMENT] section:
  ws-120           300_main_street  120              0.2      63.87720108 29.38541428 5.098259926 0                        

  
  ERROR 209: undefined object 300_main_street at line 135 of [SUBCATCHMENT] section:
  ws-121           300_main_street  121              0.26     70.4096985 36.21425336 8.467530251 0                        

  
  ERROR 209: undefined object 300_main_street at line 136 of [SUBCATCHMENT] section:
  ws-122           300_main_street  122              1.06     72.31690215 40.64178636 7.067520142 0                        

  
  ERROR 209: undefined object 300_main_street at line 137 of [SUBCATCHMENT] section:
  ws-123           300_main_street  123              29.5     72.74700165 265.5927262 3.915590048 0                        

  
  ERROR 209: undefined object 300_main_street at line 138 of [SUBCATCHMENT] section:
  ws-124           300_main_street  124              0.75     44.07899858 55.02888174 4.681240082 0                        

  
  ERROR 209: undefined object 300_main_street at line 139 of [SUBCATCHMENT] section:
  ws-127           300_main_street  127              0.12     15.53439999 25.78502835 2.096179962 0                        

  
  ERROR 209: undefined object 300_main_street at line 140 of [SUBCATCHMENT] section:
  ws-128           300_main_street  128              68.3     78.51139833 266.0742296 2.597700119 0                        

  
  Maximum error count exceeded.

  Analysis begun on:  Wed Oct 08 12:41:42 2014
  Analysis ended on:  Wed Oct 08 12:41:42 2014
  Total elapsed time: < 1 sec