
  EPA STORM WATER MANAGEMENT MODEL - VERSION 5.1 (Build 5.1.005)
  --------------------------------------------------------------

  WARNING 01: wet weather time step reduced to recording interval for Rain Gage 300_main_street
  WARNING 04: minimum elevation drop used for Conduit 46
  WARNING 04: minimum elevation drop used for Conduit 58
  WARNING 04: minimum elevation drop used for Conduit 59
  WARNING 04: minimum elevation drop used for Conduit 60
  WARNING 04: minimum elevation drop used for Conduit 61
  WARNING 04: minimum elevation drop used for Conduit 63
  WARNING 04: minimum elevation drop used for Conduit 67
  WARNING 04: minimum elevation drop used for Conduit 72
  WARNING 04: minimum elevation drop used for Conduit 73
  WARNING 04: minimum elevation drop used for Conduit 74
  WARNING 04: minimum elevation drop used for Conduit 78
  WARNING 04: minimum elevation drop used for Conduit 56
  WARNING 02: maximum depth increased for Node 22
  WARNING 02: maximum depth increased for Node 23
  WARNING 02: maximum depth increased for Node 24
  WARNING 02: maximum depth increased for Node 25
  WARNING 02: maximum depth increased for Node 32
  WARNING 02: maximum depth increased for Node 33
  WARNING 02: maximum depth increased for Node 34
  WARNING 02: maximum depth increased for Node 35
  WARNING 02: maximum depth increased for Node 36
  WARNING 02: maximum depth increased for Node 37
  WARNING 02: maximum depth increased for Node 40
  WARNING 02: maximum depth increased for Node 41
  WARNING 02: maximum depth increased for Node 42
  WARNING 02: maximum depth increased for Node 43
  WARNING 02: maximum depth increased for Node 44
  WARNING 02: maximum depth increased for Node 46
  WARNING 02: maximum depth increased for Node 47
  WARNING 02: maximum depth increased for Node 48
  WARNING 02: maximum depth increased for Node 49
  WARNING 02: maximum depth increased for Node 50
  WARNING 02: maximum depth increased for Node 51
  WARNING 02: maximum depth increased for Node 52
  WARNING 02: maximum depth increased for Node 55
  WARNING 02: maximum depth increased for Node 56a
  WARNING 02: maximum depth increased for Node 57
  WARNING 02: maximum depth increased for Node 58
  WARNING 02: maximum depth increased for Node 59
  WARNING 02: maximum depth increased for Node 60
  WARNING 02: maximum depth increased for Node 61
  WARNING 02: maximum depth increased for Node 62
  WARNING 02: maximum depth increased for Node 63
  WARNING 02: maximum depth increased for Node 64
  WARNING 02: maximum depth increased for Node 65
  WARNING 02: maximum depth increased for Node 66
  WARNING 02: maximum depth increased for Node 67
  WARNING 02: maximum depth increased for Node 68
  WARNING 02: maximum depth increased for Node 69
  WARNING 02: maximum depth increased for Node 70
  WARNING 02: maximum depth increased for Node 71
  WARNING 02: maximum depth increased for Node 72
  WARNING 02: maximum depth increased for Node 73
  WARNING 02: maximum depth increased for Node 74
  WARNING 02: maximum depth increased for Node 75
  WARNING 02: maximum depth increased for Node 76
  WARNING 02: maximum depth increased for Node 77
  WARNING 02: maximum depth increased for Node 78
  WARNING 02: maximum depth increased for Node 79
  WARNING 02: maximum depth increased for Node 92
  WARNING 02: maximum depth increased for Node 134
  WARNING 02: maximum depth increased for Node 135
  WARNING 02: maximum depth increased for Node 136
  WARNING 02: maximum depth increased for Node 138
  WARNING 02: maximum depth increased for Node 139
  WARNING 02: maximum depth increased for Node 140
  WARNING 02: maximum depth increased for Node 141
  WARNING 02: maximum depth increased for Node 142
  WARNING 02: maximum depth increased for Node 143
  WARNING 02: maximum depth increased for Node 158
  WARNING 02: maximum depth increased for Node 159
  WARNING 02: maximum depth increased for Node 163
  WARNING 02: maximum depth increased for Node 164
  WARNING 02: maximum depth increased for Node 165
  WARNING 02: maximum depth increased for Node 166
  WARNING 02: maximum depth increased for Node 167
  WARNING 02: maximum depth increased for Node 168
  WARNING 02: maximum depth increased for Node 170
  WARNING 02: maximum depth increased for Node 171
  WARNING 02: maximum depth increased for Node 173
  WARNING 02: maximum depth increased for Node 174
  
  *********************************************************
  NOTE: The summary statistics displayed in this report are
  based on results found at every computational time step,  
  not just on results from each reporting time step.
  *********************************************************
  
  ****************
  Analysis Options
  ****************
  Flow Units ............... CMS
  Process Models:
    Rainfall/Runoff ........ YES
    RDII ................... NO
    Snowmelt ............... NO
    Groundwater ............ NO
    Flow Routing ........... YES
    Ponding Allowed ........ NO
    Water Quality .......... NO
  Infiltration Method ...... CURVE_NUMBER
  Flow Routing Method ...... DYNWAVE
  Starting Date ............ FEB-04-2013 00:00:00
  Ending Date .............. FEB-05-2013 00:00:00
  Antecedent Dry Days ...... 0.0
  Report Time Step ......... 00:05:00
  Wet Time Step ............ 00:01:00
  Dry Time Step ............ 00:15:00
  Routing Time Step ........ 30.00 sec
  Variable Time Step ....... YES
  Maximum Trials ........... 8
  Head Tolerance ........... 0.005000 m
  
  
  **************************        Volume         Depth
  Runoff Quantity Continuity     hectare-m            mm
  **************************     ---------       -------
  Total Precipitation ......        40.126        37.338
  Evaporation Loss .........         0.000         0.000
  Infiltration Loss ........        13.603        12.658
  Surface Runoff ...........        25.955        24.151
  Final Surface Storage ....         0.578         0.537
  Continuity Error (%) .....        -0.023
  
  
  **************************        Volume        Volume
  Flow Routing Continuity        hectare-m      10^6 ltr
  **************************     ---------     ---------
  Dry Weather Inflow .......         0.000         0.000
  Wet Weather Inflow .......        25.954       259.543
  Groundwater Inflow .......         0.000         0.000
  RDII Inflow ..............         0.000         0.000
  External Inflow ..........         0.000         0.000
  External Outflow .........        21.693       216.937
  Internal Outflow .........         4.188        41.880
  Evaporation Loss .........         0.000         0.000
  Seepage Loss .............         0.000         0.000
  Initial Stored Volume ....         0.035         0.351
  Final Stored Volume ......         0.143         1.425
  Continuity Error (%) .....        -0.134
  
  
  ***************************
  Time-Step Critical Elements
  ***************************
  Link 47b (45.70%)
  Link 56 (45.66%)
  Link 144 (3.94%)
  
  
  ********************************
  Highest Flow Instability Indexes
  ********************************
  Link 53 (8)
  Link 151 (4)
  Link 98 (4)
  Link 63 (3)
  Link 2 (3)
  
  
  *************************
  Routing Time Step Summary
  *************************
  Minimum Time Step           :     0.50 sec
  Average Time Step           :     3.66 sec
  Maximum Time Step           :    30.00 sec
  Percent in Steady State     :     0.00
  Average Iterations per Step :     2.19
  Percent Not Converging      :     1.28
  
  
  ***************************
  Subcatchment Runoff Summary
  ***************************
  
  --------------------------------------------------------------------------------------------------------
                            Total      Total      Total      Total      Total       Total     Peak  Runoff
                           Precip      Runon       Evap      Infil     Runoff      Runoff   Runoff   Coeff
  Subcatchment                 mm         mm         mm         mm         mm    10^6 ltr      CMS
  --------------------------------------------------------------------------------------------------------
  ws-1                      37.34       0.00       0.00      12.51      24.82        0.11     0.08   0.665
  ws-2                      37.34       0.00       0.00      15.77      21.59        0.05     0.05   0.578
  ws-3                      37.34       0.00       0.00      13.91      23.27        2.25     1.27   0.623
  ws-7                      37.34       0.00       0.00      15.31      22.04        0.05     0.04   0.590
  ws-8                      37.34       0.00       0.00      11.14      26.18        0.24     0.17   0.701
  ws-9                      37.34       0.00       0.00       9.35      28.04        0.08     0.07   0.751
  ws-10                     37.34       0.00       0.00       3.76      33.65        0.09     0.09   0.901
  ws-11                     37.34       0.00       0.00       4.87      32.45        0.48     0.36   0.869
  ws-12                     37.34       0.00       0.00       5.02      32.35        0.12     0.10   0.867
  ws-13                     37.34       0.00       0.00       7.25      30.04        1.07     0.72   0.805
  ws-14                     37.34       0.00       0.00       4.51      32.88        0.07     0.06   0.881
  ws-15                     37.34       0.00       0.00       5.47      31.91        0.07     0.06   0.855
  ws-16                     37.34       0.00       0.00       4.45      32.93        0.10     0.09   0.882
  ws-17                     37.34       0.00       0.00      13.72      23.04       16.14     5.31   0.617
  ws-18                     37.34       0.00       0.00       3.78      33.66        0.06     0.06   0.901
  ws-19                     37.34       0.00       0.00      13.04      24.21        0.96     0.61   0.649
  ws-20                     37.34       0.00       0.00      12.42      24.76        3.43     1.91   0.663
  ws-21                     37.34       0.00       0.00      19.37      17.94        0.11     0.07   0.480
  ws-22                     37.34       0.00       0.00       9.25      27.87        5.73     2.56   0.746
  ws-23                     37.34       0.00       0.00      15.19      22.09        0.16     0.10   0.592
  ws-24                     37.34       0.00       0.00      11.23      26.14        0.04     0.04   0.700
  ws-25                     37.34       0.00       0.00      12.15      25.10        0.83     0.51   0.672
  ws-26                     37.34       0.00       0.00      10.98      26.20        2.73     1.45   0.702
  ws-27                     37.34       0.00       0.00      17.11      20.21        0.09     0.07   0.541
  ws-28                     37.34       0.00       0.00      15.86      21.45        0.21     0.15   0.575
  ws-29                     37.34       0.00       0.00      20.83      16.45        0.22     0.12   0.440
  ws-30                     37.34       0.00       0.00      17.58      19.68        0.30     0.18   0.527
  ws-31                     37.34       0.00       0.00      26.51      10.78        0.04     0.02   0.289
  ws-32                     37.34       0.00       0.00      24.13      13.02        1.30     0.76   0.349
  ws-35                     37.34       0.00       0.00      32.90       4.35        0.04     0.01   0.117
  ws-37                     37.34       0.00       0.00       8.35      28.95        0.28     0.19   0.775
  ws-38                     37.34       0.00       0.00       9.35      27.97        0.28     0.20   0.749
  ws-40                     37.34       0.00       0.00       4.18      33.18        0.06     0.05   0.889
  ws-41                     37.34       0.00       0.00       3.72      33.58        1.01     0.68   0.899
  ws-42                     37.34       0.00       0.00       6.02      31.29        0.92     0.65   0.838
  ws-43                     37.34       0.00       0.00       8.48      28.85        0.22     0.17   0.773
  ws-45                     37.34       0.00       0.00      11.02      26.16        3.98     2.10   0.701
  ws-46                     37.34       0.00       0.00       5.17      32.01        5.52     2.11   0.857
  ws-47                     37.34       0.00       0.00       6.85      30.48        0.20     0.16   0.816
  ws-48                     37.34       0.00       0.00       4.67      32.70        0.09     0.08   0.876
  ws-49                     37.34       0.00       0.00       7.23      30.09        0.33     0.24   0.806
  ws-50                     37.34       0.00       0.00       4.60      32.72        0.21     0.16   0.876
  ws-52                     37.34       0.00       0.00       7.01      30.29        0.51     0.35   0.811
  ws-53                     37.34       0.00       0.00      10.57      26.66        2.08     1.20   0.714
  ws-54                     37.34       0.00       0.00       5.22      32.11        0.13     0.10   0.860
  ws-55                     37.34       0.00       0.00      13.44      23.77        2.76     1.63   0.637
  ws-57                     37.34       0.00       0.00      27.83       9.42        0.04     0.01   0.252
  ws-58                     37.34       0.00       0.00      18.97      18.25        0.47     0.27   0.489
  ws-60                     37.34       0.00       0.00       7.53      29.81        0.14     0.11   0.798
  ws-61                     37.34       0.00       0.00       7.85      29.48        0.23     0.17   0.789
  ws-62                     37.34       0.00       0.00       8.02      29.34        0.09     0.08   0.786
  ws-63                     37.34       0.00       0.00       6.53      30.76        1.12     0.75   0.824
  ws-64                     37.34       0.00       0.00       9.19      28.02        2.69     1.47   0.750
  ws-65                     37.34       0.00       0.00       7.18      30.14        0.33     0.24   0.807
  ws-66                     37.34       0.00       0.00      10.35      26.89        4.05     2.36   0.720
  ws-69                     37.34       0.00       0.00      12.09      25.07        2.81     1.48   0.671
  ws-70                     37.34       0.00       0.00       9.33      27.96        0.41     0.27   0.749
  ws-71                     37.34       0.00       0.00      10.48      26.53       13.30     5.53   0.711
  ws-73                     37.34       0.00       0.00       9.00      28.32        0.20     0.15   0.759
  ws-74                     37.34       0.00       0.00      28.31       8.70        0.24     0.11   0.233
  ws-75                     37.34       0.00       0.00      27.64       9.60        0.06     0.03   0.257
  ws-77                     37.34       0.00       0.00      26.47      10.83        0.02     0.01   0.290
  ws-78                     37.34       0.00       0.00      17.64      19.58        0.53     0.31   0.525
  ws-79                     37.34       0.00       0.00      18.16      19.12        0.18     0.11   0.512
  ws-80                     37.34       0.00       0.00      13.71      23.66        0.01     0.01   0.634
  ws-81                     37.34       0.00       0.00      15.58      21.64        0.31     0.18   0.580
  ws-83                     37.34       0.00       0.00      12.56      24.67        0.36     0.21   0.661
  ws-84                     37.34       0.00       0.00      18.88      17.71       23.68     9.84   0.474
  ws-87                     37.34       0.00       0.00       0.52      36.82        0.07     0.06   0.986
  ws-88                     37.34       0.00       0.00       5.43      31.86        1.32     0.86   0.853
  ws-89                     37.34       0.00       0.00       0.48      36.88        0.07     0.06   0.988
  ws-90                     37.34       0.00       0.00       0.50      36.88        0.01     0.01   0.988
  ws-91                     37.34       0.00       0.00       0.35      37.04        0.01     0.01   0.992
  ws-92                     37.34       0.00       0.00       1.63      35.74        0.04     0.04   0.957
  ws-93                     37.34       0.00       0.00       2.01      35.38        0.02     0.02   0.948
  ws-94                     37.34       0.00       0.00       1.99      35.32        0.55     0.38   0.946
  ws-95                     37.34       0.00       0.00       1.99      35.36        0.09     0.08   0.947
  ws-96                     37.34       0.00       0.00       0.69      36.73        0.03     0.02   0.984
  ws-97                     37.34       0.00       0.00       2.81      34.53        0.27     0.22   0.925
  ws-98                     37.34       0.00       0.00       3.73      33.62        0.26     0.21   0.901
  ws-101                    37.34       0.00       0.00       6.68      30.65        0.17     0.13   0.821
  ws-102                    37.34       0.00       0.00       5.99      31.36        0.15     0.12   0.840
  ws-103                    37.34       0.00       0.00       8.36      28.99        0.02     0.02   0.776
  ws-105                    37.34       0.00       0.00       5.91      31.44        0.10     0.09   0.842
  ws-106                    37.34       0.00       0.00       1.51      35.85        0.08     0.07   0.960
  ws-107                    37.34       0.00       0.00       2.06      35.31        0.09     0.08   0.946
  ws-108                    37.34       0.00       0.00       5.25      32.04        1.15     0.76   0.858
  ws-112                    37.34       0.00       0.00       5.86      31.47        0.27     0.21   0.843
  ws-114                    37.34       0.00       0.00       7.28      30.12        0.02     0.01   0.807
  ws-115                    37.34       0.00       0.00       5.51      31.88        0.02     0.02   0.854
  ws-116                    37.34       0.00       0.00       8.66      28.55        6.55     3.44   0.765
  ws-118                    37.34       0.00       0.00      10.98      26.41        0.01     0.01   0.707
  ws-119                    37.34       0.00       0.00       4.84      32.49        0.25     0.19   0.870
  ws-120                    37.34       0.00       0.00       6.16      31.21        0.06     0.05   0.836
  ws-121                    37.34       0.00       0.00       5.32      32.07        0.08     0.07   0.859
  ws-122                    37.34       0.00       0.00       5.45      31.88        0.34     0.26   0.854
  ws-123                    37.34       0.00       0.00       6.02      31.22        9.21     4.72   0.836
  ws-124                    37.34       0.00       0.00      12.47      24.85        0.19     0.13   0.666
  ws-127                    37.34       0.00       0.00      23.91      13.41        0.02     0.01   0.359
  ws-128                    37.34       0.00       0.00       5.01      32.07       21.90     6.20   0.859
  ws-130                    37.34       0.00       0.00      12.24      25.11        0.03     0.02   0.672
  ws-131                    37.34       0.00       0.00       6.38      31.04        0.01     0.01   0.831
  ws-132                    37.34       0.00       0.00       8.13      29.07        5.59     2.74   0.779
  ws-136                    37.34       0.00       0.00      15.66      21.49        1.69     0.93   0.576
  ws-137                    37.34       0.00       0.00      13.17      24.17        0.06     0.04   0.647
  ws-138                    37.34       0.00       0.00      24.98      12.29        0.10     0.05   0.329
  ws-139                    37.34       0.00       0.00      24.63      12.70        0.04     0.02   0.340
  ws-141                    37.34       0.00       0.00      25.11      12.20        0.02     0.01   0.327
  ws-142                    37.34       0.00       0.00      24.29      13.04        0.02     0.01   0.349
  ws-143                    37.34       0.00       0.00      22.40      14.90        0.10     0.06   0.399
  ws-144                    37.34       0.00       0.00      10.30      26.96        0.51     0.31   0.722
  ws-145                    37.34       0.00       0.00       5.56      31.83        0.03     0.03   0.853
  ws-146                    37.34       0.00       0.00      16.20      21.13        0.05     0.04   0.566
  ws-148                    37.34       0.00       0.00      11.57      25.36       20.65     8.17   0.679
  ws-149                    37.34       0.00       0.00      28.15       9.13        0.00     0.00   0.244
  ws-150                    37.34       0.00       0.00      15.68      21.05        9.37     3.75   0.564
  ws-154                    37.34       0.00       0.00      12.22      25.08        0.16     0.11   0.672
  ws-155                    37.34       0.00       0.00      14.62      22.71        0.04     0.02   0.608
  ws-156                    37.34       0.00       0.00      10.78      26.53        0.14     0.10   0.711
  ws-157                    37.34       0.00       0.00      15.01      22.24        0.35     0.21   0.596
  ws-159                    37.34       0.00       0.00      13.89      22.88       17.02     6.71   0.613
  ws-161                    37.34       0.00       0.00      15.09      20.98       40.94    10.40   0.562
  ws-162                    37.34       0.00       0.00      15.00      22.24        0.06     0.02   0.596
  ws-163                    37.34       0.00       0.00      20.10      17.18        0.07     0.04   0.460
  ws-165                    37.34       0.00       0.00       9.11      28.20        0.62     0.45   0.755
  ws-166                    37.34       0.00       0.00       2.43      34.90        0.34     0.26   0.935
  ws-167                    37.34       0.00       0.00       5.09      32.30        0.04     0.04   0.865
  ws-168                    37.34       0.00       0.00       6.90      30.40        0.53     0.36   0.814
  ws-169                    37.34       0.00       0.00       3.20      34.18        0.05     0.05   0.915
  ws-170                    37.34       0.00       0.00       5.11      32.22        0.19     0.15   0.863
  ws-171                    37.34       0.00       0.00       8.61      28.64        3.28     1.87   0.767
  ws-172                    37.34       0.00       0.00       9.27      28.02        0.43     0.27   0.750
  ws-173                    37.34       0.00       0.00       7.33      29.82        6.57     2.79   0.799
  ws-174                    37.34       0.00       0.00       3.37      33.99        0.03     0.03   0.910
  
  
  ******************
  Node Depth Summary
  ******************
  
  ---------------------------------------------------------------------
                                 Average  Maximum  Maximum  Time of Max
                                   Depth    Depth      HGL   Occurrence
  Node                 Type       Meters   Meters   Meters  days hr:min
  ---------------------------------------------------------------------
  1                    JUNCTION     0.32     1.26    35.96     0  00:52
  2                    JUNCTION     0.55     1.98    36.99     0  00:53
  3                    JUNCTION     0.58     2.09    37.41     0  00:51
  4                    JUNCTION     0.59     2.16    37.81     0  00:51
  5                    JUNCTION     0.60     2.25    38.21     0  00:51
  6                    JUNCTION     0.60     2.28    38.55     0  00:51
  7                    JUNCTION     0.60     2.29    38.87     0  00:51
  8                    JUNCTION     0.61     2.31    39.22     0  00:51
  9                    JUNCTION     0.61     2.35    39.56     0  00:51
  10                   JUNCTION     0.61     2.34    39.88     0  00:51
  11                   JUNCTION     0.61     2.40    40.25     0  00:51
  12                   JUNCTION     0.61     2.41    40.57     0  00:51
  13                   JUNCTION     0.61     2.44    40.91     0  00:51
  14                   JUNCTION     0.61     2.47    41.26     0  00:51
  15                   JUNCTION     0.61     2.47    41.58     0  00:51
  16                   JUNCTION     0.61     2.52    41.94     0  00:50
  17                   JUNCTION     0.61     2.54    42.28     0  00:50
  18                   JUNCTION     0.59     2.50    42.56     0  00:50
  19                   JUNCTION     0.58     2.47    42.85     0  00:50
  20                   JUNCTION     0.58     2.43    43.12     0  00:50
  21                   JUNCTION     0.57     2.39    43.42     0  00:50
  22                   JUNCTION     0.57     2.13    43.49     0  00:50
  23                   JUNCTION     0.56     2.11    43.81     0  00:53
  24                   JUNCTION     0.55     2.10    44.11     0  00:53
  25                   JUNCTION     0.55     2.09    44.23     0  00:53
  26                   JUNCTION     0.55     2.09    44.41     0  00:53
  27                   JUNCTION     0.55     2.07    44.72     0  00:54
  28                   JUNCTION     0.55     2.06    45.03     0  00:54
  29                   JUNCTION     0.55     2.06    45.47     0  00:54
  30                   JUNCTION     0.55     2.05    45.82     0  00:53
  31                   JUNCTION     0.54     2.05    46.14     0  00:53
  32                   JUNCTION     0.54     2.05    46.45     0  00:53
  33                   JUNCTION     0.54     2.04    46.77     0  00:53
  34                   JUNCTION     0.54     2.04    47.08     0  00:53
  35                   JUNCTION     0.54     2.04    47.42     0  00:52
  36                   JUNCTION     0.47     1.88    47.58     0  00:52
  37                   JUNCTION     0.46     1.77    47.83     0  00:52
  38                   JUNCTION     0.45     1.72    48.11     0  00:52
  39                   JUNCTION     0.46     1.87    48.32     0  00:52
  40                   JUNCTION     0.51     1.65    48.59     0  00:49
  41                   JUNCTION     0.37     1.21    49.73     0  00:47
  42                   JUNCTION     0.47     1.76    50.47     0  00:46
  43                   JUNCTION     0.39     1.17    50.96     0  00:47
  44                   JUNCTION     0.32     0.99    51.86     0  00:46
  45                   JUNCTION     0.67     2.28    53.18     0  00:46
  46                   JUNCTION     0.78     2.36    53.26     0  00:47
  47                   JUNCTION     0.54     1.91    53.24     0  00:46
  48                   JUNCTION     0.59     2.81    55.10     0  00:50
  49                   JUNCTION     0.70     2.81    55.17     0  00:50
  50                   JUNCTION     0.70     2.81    55.24     0  00:50
  51                   JUNCTION     0.28     0.94    55.13     0  00:48
  52                   JUNCTION     0.46     2.18    56.48     0  00:48
  53                   JUNCTION     0.55     1.94    56.53     0  00:47
  54                   JUNCTION     0.34     1.72    56.58     0  00:49
  55                   JUNCTION     0.24     1.46    56.69     0  00:49
  56a                  JUNCTION     0.36     1.51    57.02     0  00:47
  57                   JUNCTION     0.32     1.61    57.69     0  00:47
  58                   JUNCTION     0.52     1.85    57.93     0  00:46
  59                   JUNCTION     0.66     2.19    58.27     0  00:46
  60                   JUNCTION     0.90     2.47    58.55     0  00:44
  61                   JUNCTION     0.94     2.55    58.64     0  00:44
  62                   JUNCTION     0.16     1.08    58.99     0  00:45
  63                   JUNCTION     0.34     1.91    59.82     0  00:51
  64                   JUNCTION     0.24     1.56    59.72     0  00:45
  65                   JUNCTION     0.38     2.02    60.45     0  00:46
  66                   JUNCTION     0.51     1.98    60.50     0  00:46
  67                   JUNCTION     0.62     2.09    60.61     0  00:46
  68                   JUNCTION     0.31     1.17    60.70     0  00:43
  69                   JUNCTION     0.62     1.87    61.37     0  00:43
  70                   JUNCTION     0.71     1.93    61.76     0  00:43
  71                   JUNCTION     0.58     1.91    61.96     0  00:42
  72                   JUNCTION     0.71     2.03    62.08     0  00:42
  73                   JUNCTION     0.88     2.22    62.26     0  00:42
  74                   JUNCTION     0.90     2.28    62.33     0  00:42
  75                   JUNCTION     0.45     1.67    62.33     0  00:42
  76                   JUNCTION     0.41     1.55    62.51     0  00:41
  77                   JUNCTION     0.21     0.95    62.52     0  00:42
  78                   JUNCTION     0.57     1.52    63.09     0  00:41
  79                   JUNCTION     0.31     1.05    63.23     0  00:40
  80                   JUNCTION     0.22     0.95    63.56     0  00:34
  81                   JUNCTION     0.25     1.02    63.85     0  00:40
  82                   JUNCTION     0.25     1.02    64.06     0  00:40
  83                   JUNCTION     0.25     1.02    64.27     0  00:40
  84                   JUNCTION     0.25     1.02    64.48     0  00:40
  85                   JUNCTION     0.23     0.89    64.56     0  00:40
  86                   JUNCTION     0.22     0.83    64.71     0  00:40
  87                   JUNCTION     0.21     0.79    64.87     0  00:40
  88                   JUNCTION     0.21     0.76    65.06     0  00:40
  89                   JUNCTION     0.21     0.74    65.24     0  00:40
  90                   JUNCTION     0.21     0.72    65.51     0  00:39
  91                   JUNCTION     0.23     0.79    65.79     0  00:40
  92                   JUNCTION     0.23     0.79    66.00     0  00:40
  93                   JUNCTION     0.23     0.79    66.21     0  00:40
  94                   JUNCTION     0.23     0.79    66.42     0  00:40
  95                   JUNCTION     0.22     0.78    66.62     0  00:39
  96                   JUNCTION     0.22     0.77    66.82     0  00:39
  97                   JUNCTION     0.22     0.78    67.04     0  00:40
  98                   JUNCTION     0.29     0.95    67.24     0  00:41
  99                   JUNCTION     0.32     1.02    67.34     0  00:40
  100                  JUNCTION     0.33     1.08    67.43     0  00:40
  101                  JUNCTION     0.34     1.13    67.51     0  00:41
  102                  JUNCTION     0.32     1.13    67.57     0  00:41
  103                  JUNCTION     0.32     1.13    67.63     0  00:41
  104                  JUNCTION     0.31     1.13    67.68     0  00:40
  105                  JUNCTION     0.31     1.13    67.75     0  00:40
  106                  JUNCTION     0.31     1.13    67.81     0  00:40
  107                  JUNCTION     0.31     1.13    67.87     0  00:40
  108                  JUNCTION     0.31     1.12    67.92     0  00:40
  109                  JUNCTION     0.31     1.11    67.97     0  00:40
  110                  JUNCTION     0.30     1.10    68.02     0  00:40
  111                  JUNCTION     0.30     1.09    68.06     0  00:39
  112                  JUNCTION     0.30     1.08    68.13     0  00:39
  113                  JUNCTION     0.22     0.91    68.56     0  00:39
  114                  JUNCTION     0.22     0.86    69.20     0  00:39
  115                  JUNCTION     0.22     0.84    69.79     0  00:39
  116                  JUNCTION     0.22     0.84    70.65     0  00:39
  117                  JUNCTION     0.45     1.67    72.08     0  00:39
  118                  JUNCTION     0.56     2.43    73.44     0  00:38
  119                  JUNCTION     0.31     1.79    73.40     0  00:33
  120                  JUNCTION     0.21     1.21    73.42     0  00:33
  121                  JUNCTION     0.14     0.89    73.72     0  00:39
  122                  JUNCTION     0.11     0.74    74.19     0  00:39
  123                  JUNCTION     0.11     0.72    74.86     0  00:39
  124                  JUNCTION     0.24     1.23    73.76     0  00:38
  125                  JUNCTION     0.30     1.23    74.06     0  00:39
  126                  JUNCTION     0.28     1.22    74.35     0  00:39
  127                  JUNCTION     0.28     1.26    74.69     0  00:50
  128                  JUNCTION     0.28     1.29    75.04     0  00:40
  129                  JUNCTION     0.10     0.96    75.08     0  00:40
  130                  JUNCTION     0.03     0.51    75.12     0  00:40
  131                  JUNCTION     0.00     0.01    75.12     0  00:37
  132                  JUNCTION     0.21     0.70    65.63     0  00:39
  133                  JUNCTION     0.18     0.54    65.63     0  00:39
  134                  JUNCTION     0.18     0.44    65.68     0  00:39
  135                  JUNCTION     0.17     0.41    65.80     0  00:39
  136                  JUNCTION     0.17     0.40    65.93     0  00:39
  137                  JUNCTION     0.25     0.45    66.01     0  00:39
  138                  JUNCTION     0.45     0.72    66.29     0  00:37
  139                  JUNCTION     0.51     0.81    66.40     0  00:39
  140                  JUNCTION     0.55     0.87    66.48     0  00:39
  141                  JUNCTION     0.58     0.92    66.55     0  00:39
  142                  JUNCTION     0.61     0.97    66.61     0  00:39
  143                  JUNCTION     0.63     1.00    66.66     0  00:29
  144                  JUNCTION     0.65     1.04    66.71     0  00:38
  145                  JUNCTION     0.66     1.06    66.75     0  00:26
  146                  JUNCTION     0.71     1.26    66.96     0  00:38
  147                  JUNCTION     0.76     1.44    67.16     0  00:26
  148                  JUNCTION     0.83     1.78    67.52     0  00:26
  149                  JUNCTION     0.86     2.23    67.99     0  00:36
  150                  JUNCTION     0.46     2.22    68.60     0  00:38
  151                  JUNCTION     0.39     1.87    68.69     0  00:38
  152                  JUNCTION     0.37     1.75    69.16     0  00:38
  153                  JUNCTION     0.36     1.62    69.64     0  00:38
  154                  JUNCTION     0.35     1.50    70.12     0  00:38
  155                  JUNCTION     0.32     1.23    70.45     0  00:38
  156                  JUNCTION     0.30     0.92    70.74     0  00:34
  157                  JUNCTION     0.27     0.66    71.08     0  00:24
  158                  JUNCTION     0.25     0.50    71.52     0  00:24
  159                  JUNCTION     0.25     0.50    72.01     0  00:23
  160                  JUNCTION     0.44     1.90    47.44     0  00:52
  161                  JUNCTION     0.40     1.81    47.46     0  00:53
  162                  JUNCTION     0.33     1.72    47.46     0  00:52
  163                  JUNCTION     0.28     1.63    47.46     0  00:52
  164                  JUNCTION     0.25     1.54    47.46     0  00:52
  165                  JUNCTION     0.22     1.45    47.46     0  00:52
  166                  JUNCTION     0.20     1.36    47.46     0  00:52
  167                  JUNCTION     0.16     1.18    47.46     0  00:51
  168                  JUNCTION     0.14     1.09    47.46     0  00:51
  169                  JUNCTION     0.12     1.00    47.46     0  00:51
  170                  JUNCTION     0.11     0.91    47.46     0  00:52
  171                  JUNCTION     0.09     0.75    47.46     0  00:52
  172                  JUNCTION     0.25     1.30    48.59     0  00:51
  173                  JUNCTION     0.08     0.58    48.59     0  00:48
  174                  JUNCTION     0.00     0.01    49.37     0  00:37
  47a                  JUNCTION     0.32     1.60    53.81     0  00:46
  47b                  JUNCTION     0.49     2.23    54.47     0  00:45
  56b                  JUNCTION     0.52     2.24    57.75     0  00:47
  0                    OUTFALL      2.00     2.00    34.39     0  00:00
  
  
  *******************
  Node Inflow Summary
  *******************
  
  -------------------------------------------------------------------------------------------------
                                  Maximum  Maximum                  Lateral       Total        Flow
                                  Lateral    Total  Time of Max      Inflow      Inflow     Balance
                                   Inflow   Inflow   Occurrence      Volume      Volume       Error
  Node                 Type           CMS      CMS  days hr:min    10^6 ltr    10^6 ltr     Percent
  -------------------------------------------------------------------------------------------------
  1                    JUNCTION     0.079   57.211     0  00:54       0.112         217      -0.002
  2                    JUNCTION     0.045   50.944     0  00:52      0.0541         217       0.016
  3                    JUNCTION     1.271   50.717     0  00:51        2.25         217       0.006
  4                    JUNCTION     0.000   50.083     0  00:51           0         215       0.006
  5                    JUNCTION     0.000   49.996     0  00:51           0         215       0.006
  6                    JUNCTION     0.000   49.878     0  00:51           0         215       0.005
  7                    JUNCTION     0.040   49.882     0  00:51      0.0531         215       0.005
  8                    JUNCTION     0.168   49.645     0  00:51       0.239         215       0.004
  9                    JUNCTION     0.072   49.636     0  00:51      0.0816         214       0.004
  10                   JUNCTION     0.087   49.485     0  00:51      0.0946         214       0.003
  11                   JUNCTION     0.360   49.458     0  00:51       0.484         214       0.002
  12                   JUNCTION     0.103   49.365     0  00:51       0.117         214       0.002
  13                   JUNCTION     0.724   49.248     0  00:51        1.07         214       0.003
  14                   JUNCTION     0.063   48.954     0  00:51      0.0693         213       0.003
  15                   JUNCTION     0.060   48.976     0  00:51      0.0672         212       0.003
  16                   JUNCTION     0.089   48.947     0  00:50      0.0991         212       0.003
  17                   JUNCTION     5.314   48.992     0  00:50        16.1         212       0.004
  18                   JUNCTION     0.055   45.202     0  01:00      0.0575         196       0.002
  19                   JUNCTION     0.608   45.184     0  01:00        0.96         196       0.002
  20                   JUNCTION     1.907   45.674     0  00:50        3.43         195       0.003
  21                   JUNCTION     0.074   45.256     0  00:50       0.108         192       0.004
  22                   JUNCTION     2.556   47.541     0  00:53        5.74         193       0.006
  23                   JUNCTION     0.101   45.970     0  00:54       0.159         188       0.007
  24                   JUNCTION     0.037   45.932     0  00:54      0.0446         188       0.005
  25                   JUNCTION     0.512   45.924     0  00:54       0.827         188       0.003
  26                   JUNCTION     1.454   45.712     0  00:54        2.73         187       0.006
  27                   JUNCTION     0.066   45.013     0  00:54      0.0952         184       0.007
  28                   JUNCTION     0.146   44.984     0  00:54       0.215         184       0.009
  29                   JUNCTION     0.123   44.928     0  00:53       0.222         184       0.009
  30                   JUNCTION     0.184   44.865     0  00:53         0.3         184       0.008
  31                   JUNCTION     0.021   44.790     0  00:53      0.0378         183       0.007
  32                   JUNCTION     0.762   44.786     0  00:53         1.3         183       0.007
  33                   JUNCTION     0.000   44.491     0  00:53           0         182       0.007
  34                   JUNCTION     0.000   44.495     0  00:53           0         182       0.007
  35                   JUNCTION     0.013   44.509     0  00:52      0.0388         182       0.012
  36                   JUNCTION     0.000   33.479     0  00:49           0         136       0.008
  37                   JUNCTION     0.192   33.525     0  00:49       0.278         136       0.008
  38                   JUNCTION     0.198   33.459     0  00:49       0.277         136       0.005
  39                   JUNCTION     0.000   33.408     0  00:49           0         135       0.004
  40                   JUNCTION     0.054   33.452     0  00:48      0.0632         135       0.019
  41                   JUNCTION     0.678   31.296     0  00:47        1.01         128       0.008
  42                   JUNCTION     0.647   30.872     0  00:46       0.921         127       0.006
  43                   JUNCTION     0.166   30.574     0  00:46       0.217         126       0.007
  44                   JUNCTION     0.000   30.494     0  00:46           0         126       0.004
  45                   JUNCTION     2.103   30.508     0  00:46        3.98         126       0.001
  46                   JUNCTION     2.111   29.386     0  00:45        5.53         122       0.010
  47                   JUNCTION     0.158   27.784     0  01:00       0.202         117       0.011
  48                   JUNCTION     0.078   33.776     0  00:49      0.0886         120       0.002
  49                   JUNCTION     0.244   34.218     0  00:48       0.335         120       0.013
  50                   JUNCTION     0.158   34.449     0  00:48       0.207         120       0.013
  51                   JUNCTION     0.000   34.432     0  00:48           0         119       0.001
  52                   JUNCTION     0.350   35.553     0  00:47       0.507         119       0.002
  53                   JUNCTION     1.202   35.688     0  00:47        2.08         119       0.005
  54                   JUNCTION     0.103   35.753     0  00:47       0.132         117       0.005
  55                   JUNCTION     1.625   36.886     0  00:47        2.76         117       0.006
  56a                  JUNCTION     0.000   35.395     0  00:45           0         114       0.002
  57                   JUNCTION     0.014   41.553     0  00:47      0.0359         114       0.005
  58                   JUNCTION     0.272   40.647     0  00:45       0.468         114       0.021
  59                   JUNCTION     0.000   41.562     0  00:44           0         114       0.015
  60                   JUNCTION     0.107   43.124     0  00:44       0.137         114       0.016
  61                   JUNCTION     0.170   43.372     0  00:44        0.23         113      -0.288
  62                   JUNCTION     0.078   57.624     0  00:49      0.0941         113       0.092
  63                   JUNCTION     0.747   41.471     0  00:44        1.12         113      -0.000
  64                   JUNCTION     1.469   33.245     0  00:44        2.69         112       0.001
  65                   JUNCTION     0.242   32.736     0  00:45       0.332         109       0.001
  66                   JUNCTION     2.358   32.072     0  00:43        4.05         109       0.012
  67                   JUNCTION     0.000   29.956     0  00:44           0         105       0.013
  68                   JUNCTION     0.000   29.964     0  00:43           0         105       0.016
  69                   JUNCTION     1.478   30.048     0  00:43        2.81         105       0.010
  70                   JUNCTION     0.272   29.063     0  00:42       0.412         102       0.022
  71                   JUNCTION     5.526   28.965     0  00:42        13.3         102      -0.005
  72                   JUNCTION     0.000   24.538     0  00:42           0        88.4       0.024
  73                   JUNCTION     0.152   24.621     0  00:42       0.199        88.3       0.024
  74                   JUNCTION     0.110   24.749     0  00:42       0.236        88.1       0.037
  75                   JUNCTION     0.026   24.903     0  00:41      0.0645        87.9       0.012
  76                   JUNCTION     0.000   25.575     0  00:41           0        87.9       0.013
  77                   JUNCTION     0.012   25.812     0  00:41      0.0249        87.9       0.010
  78                   JUNCTION     0.308   25.945     0  00:40       0.531        87.9       0.025
  79                   JUNCTION     0.112   25.701     0  00:40        0.18        87.3       0.002
  80                   JUNCTION     0.012   25.576     0  00:40      0.0142        87.2       0.001
  81                   JUNCTION     0.177   25.583     0  00:40       0.308        87.1       0.000
  82                   JUNCTION     0.000   25.394     0  00:40           0        86.8       0.003
  83                   JUNCTION     0.212   25.359     0  00:40       0.358        86.8       0.003
  84                   JUNCTION     9.838   25.165     0  00:40        23.7        86.5       0.005
  85                   JUNCTION     0.000   15.805     0  00:40           0        62.8       0.004
  86                   JUNCTION     0.000   15.750     0  00:40           0        62.8       0.001
  87                   JUNCTION     0.059   15.719     0  00:40      0.0738        62.8       0.002
  88                   JUNCTION     0.855   15.645     0  00:40        1.32        62.7       0.002
  89                   JUNCTION     0.063   14.837     0  00:40      0.0739        61.4       0.003
  90                   JUNCTION     0.010   14.762     0  00:40      0.0111        61.4       0.004
  91                   JUNCTION     0.013    9.855     0  00:40      0.0149        34.3      -0.000
  92                   JUNCTION     0.037    9.846     0  00:40       0.043        34.3       0.001
  93                   JUNCTION     0.019    9.820     0  00:40      0.0213        34.2       0.001
  94                   JUNCTION     0.382    9.798     0  00:40       0.552        34.2       0.001
  95                   JUNCTION     0.075    9.435     0  00:40      0.0886        33.7       0.000
  96                   JUNCTION     0.024    9.380     0  00:39      0.0258        33.6      -0.003
  97                   JUNCTION     0.223    9.848     0  00:41       0.273        33.6       0.035
  98                   JUNCTION     0.214    9.187     0  00:39       0.256        33.3      -0.025
  99                   JUNCTION     0.000    9.028     0  00:40           0          33       0.003
  100                  JUNCTION     0.000    9.053     0  00:40           0          33      -0.001
  101                  JUNCTION     0.131    9.077     0  00:40       0.166          33       0.005
  102                  JUNCTION     0.124    9.006     0  00:40       0.151        32.9       0.001
  103                  JUNCTION     0.016    8.924     0  00:40      0.0203        32.7       0.003
  104                  JUNCTION     0.000    8.905     0  00:40           0        32.7       0.001
  105                  JUNCTION     0.085    8.902     0  00:40       0.104        32.7       0.000
  106                  JUNCTION     0.067    8.841     0  00:40       0.079        32.6       0.002
  107                  JUNCTION     0.076    8.792     0  00:40      0.0885        32.5       0.001
  108                  JUNCTION     0.762    8.739     0  00:40        1.15        32.4      -0.000
  109                  JUNCTION     0.000    8.035     0  00:40           0        31.3       0.004
  110                  JUNCTION     0.000    8.036     0  00:39           0        31.3       0.002
  111                  JUNCTION     0.000    8.045     0  00:39           0        31.3       0.002
  112                  JUNCTION     0.208    8.055     0  00:39       0.268        31.3       0.001
  113                  JUNCTION     0.000    7.877     0  00:39           0          31       0.001
  114                  JUNCTION     0.014    7.878     0  00:39      0.0151          31       0.002
  115                  JUNCTION     0.017    7.868     0  00:39      0.0192          31       0.002
  116                  JUNCTION     3.435    7.855     0  00:39        6.55          31       0.003
  117                  JUNCTION     0.000    4.454     0  00:56           0        24.4       0.000
  118                  JUNCTION     0.009    5.498     0  00:40      0.0106        25.8       0.006
  119                  JUNCTION     0.189    2.670     0  00:32       0.247        7.96      -0.011
  120                  JUNCTION     0.054    5.063     0  00:39      0.0626        9.69      -0.014
  121                  JUNCTION     0.075    5.015     0  00:39      0.0836        9.63       0.002
  122                  JUNCTION     0.258    4.972     0  00:39       0.339        9.55       0.003
  123                  JUNCTION     4.723    4.723     0  00:39        9.22        9.21      -0.000
  124                  JUNCTION     0.134    5.491     0  00:40       0.187        21.8      -0.001
  125                  JUNCTION     0.000    5.416     0  00:56           0        21.6      -0.003
  126                  JUNCTION     0.000    5.591     0  00:50           0        21.8      -0.003
  127                  JUNCTION     0.009    5.591     0  00:51      0.0161        21.8      -0.002
  128                  JUNCTION     6.202    6.499     0  00:41        21.9        22.2      -0.004
  129                  JUNCTION     0.000    0.876     0  00:39           0       0.345       0.011
  130                  JUNCTION     0.020    0.562     0  00:39      0.0252       0.125      -0.009
  131                  JUNCTION     0.006    0.006     0  00:36     0.00623     0.00621      -0.047
  132                  JUNCTION     2.739    4.950     0  00:39        5.59          27       0.006
  133                  JUNCTION     0.000    2.237     0  00:39           0        21.5       0.006
  134                  JUNCTION     0.000    2.248     0  00:39           0        21.5       0.006
  135                  JUNCTION     0.000    2.249     0  00:39           0        21.5       0.007
  136                  JUNCTION     0.927    2.254     0  00:39        1.69        21.5       0.010
  137                  JUNCTION     0.042    1.335     0  00:37      0.0557        19.8       0.021
  138                  JUNCTION     0.051    1.294     0  00:37       0.101        19.7       0.024
  139                  JUNCTION     0.023    1.251     0  00:30      0.0356        19.6       0.025
  140                  JUNCTION     0.000    1.382     0  00:27           0        19.6       0.025
  141                  JUNCTION     0.011    1.586     0  00:27      0.0196        19.6       0.027
  142                  JUNCTION     0.013    1.794     0  00:26      0.0196        19.6       0.025
  143                  JUNCTION     0.056    2.054     0  00:26       0.103        19.8       0.025
  144                  JUNCTION     0.312    2.406     0  00:26        0.51        19.7       0.024
  145                  JUNCTION     0.029    2.707     0  00:26      0.0319          25       0.017
  146                  JUNCTION     0.038    2.710     0  00:26      0.0551        24.9       0.009
  147                  JUNCTION     0.000    3.299     0  00:43           0        27.2       0.023
  148                  JUNCTION     8.167   12.105     0  00:39        20.7        38.4       0.020
  149                  JUNCTION     0.001    4.377     0  00:39     0.00274        17.9       0.026
  150                  JUNCTION     3.750    4.375     0  00:39        9.38        17.8       0.004
  151                  JUNCTION     0.000    0.758     0  00:25           0        8.48       0.006
  152                  JUNCTION     0.000    0.766     0  00:25           0        8.48       0.001
  153                  JUNCTION     0.000    0.779     0  00:24           0        8.48       0.008
  154                  JUNCTION     0.106    0.780     0  00:24       0.161        8.48       0.006
  155                  JUNCTION     0.025    0.767     0  00:24      0.0364        8.32       0.007
  156                  JUNCTION     0.096    0.765     0  00:24       0.138        8.32       0.005
  157                  JUNCTION     0.211    0.814     0  00:39        0.35        8.52       0.007
  158                  JUNCTION     0.000    0.703     0  00:24           0        8.49       0.009
  159                  JUNCTION     6.707    6.707     0  00:39          17          17       0.024
  160                  JUNCTION     0.000   11.095     0  00:52           0        46.1       0.017
  161                  JUNCTION    10.400   11.177     0  00:40        40.9        46.5       0.010
  162                  JUNCTION     0.024    2.160     0  01:13      0.0556        5.85       0.008
  163                  JUNCTION     0.037    1.962     0  01:13      0.0689         5.6       0.008
  164                  JUNCTION     0.000    1.802     0  00:38           0        5.39       0.008
  165                  JUNCTION     0.446    2.069     0  00:38       0.621         5.3       0.003
  166                  JUNCTION     0.263    2.012     0  00:38       0.336         4.6       0.009
  167                  JUNCTION     0.035    2.061     0  00:39      0.0389        4.15       0.011
  168                  JUNCTION     0.362    2.187     0  00:39        0.53        4.06       0.001
  169                  JUNCTION     0.046    1.951     0  00:39      0.0514        3.52       0.007
  170                  JUNCTION     0.146    1.991     0  00:39        0.19        3.47       0.011
  171                  JUNCTION     1.867    1.867     0  00:39        3.28        3.28      -0.003
  172                  JUNCTION     0.275    3.049     0  00:39       0.432        7.03       0.016
  173                  JUNCTION     2.786    2.811     0  00:39        6.57         6.6       0.009
  174                  JUNCTION     0.027    0.027     0  00:37      0.0307      0.0306       0.007
  47a                  JUNCTION     0.000   27.765     0  01:00           0         116      -0.008
  47b                  JUNCTION     0.000   33.724     0  00:50           0         120       0.005
  56b                  JUNCTION     0.000   35.824     0  00:45           0         114       0.009
  0                    OUTFALL      0.000   53.773     0  00:52           0         217       0.000
  
  
  **********************
  Node Surcharge Summary
  **********************
  
  Surcharging occurs when water rises above the top of the highest conduit.
  ---------------------------------------------------------------------
                                               Max. Height   Min. Depth
                                   Hours       Above Crown    Below Rim
  Node                 Type      Surcharged         Meters       Meters
  ---------------------------------------------------------------------
  4                    JUNCTION        0.01          0.032        0.000
  5                    JUNCTION        0.11          0.122        2.137
  6                    JUNCTION        0.21          0.146        1.800
  7                    JUNCTION        0.23          0.157        1.476
  8                    JUNCTION        0.23          0.184        1.134
  9                    JUNCTION        0.24          0.215        0.789
  10                   JUNCTION        0.24          0.213        0.473
  11                   JUNCTION        0.24          0.273        0.099
  12                   JUNCTION        0.24          0.275        2.857
  13                   JUNCTION        0.24          0.308        2.510
  14                   JUNCTION        0.24          0.341        2.162
  15                   JUNCTION        0.24          0.343        1.845
  16                   JUNCTION        0.24          0.386        1.482
  17                   JUNCTION        0.24          0.406        1.148
  18                   JUNCTION        0.22          0.371        0.865
  19                   JUNCTION        0.21          0.338        0.578
  20                   JUNCTION        0.20          0.298        0.301
  21                   JUNCTION        0.18          0.256        0.000
  22                   JUNCTION        0.16          0.000        0.000
  117                  JUNCTION        0.76          0.665        2.266
  118                  JUNCTION        0.80          1.428        1.135
  119                  JUNCTION        0.73          0.793        0.000
  120                  JUNCTION        0.65          0.215        0.000
  124                  JUNCTION        0.54          0.234        1.753
  125                  JUNCTION        0.42          0.233        0.677
  126                  JUNCTION        0.39          0.224        0.000
  127                  JUNCTION        0.37          0.260        0.012
  128                  JUNCTION        0.36          0.285        0.000
  143                  JUNCTION        0.77          0.000        0.000
  144                  JUNCTION        1.64          0.042        0.154
  145                  JUNCTION        1.77          0.062        0.000
  146                  JUNCTION        1.85          0.259        0.017
  147                  JUNCTION        1.93          0.439        0.000
  148                  JUNCTION        2.00          0.781        0.000
  149                  JUNCTION        1.97          1.234        0.000
  150                  JUNCTION        0.99          1.224        1.005
  151                  JUNCTION        0.62          0.871        1.629
  152                  JUNCTION        1.19          1.245        0.888
  153                  JUNCTION        1.19          1.121        0.545
  154                  JUNCTION        1.19          1.000        0.292
  155                  JUNCTION        1.18          0.728        0.382
  156                  JUNCTION        1.18          0.416        0.000
  157                  JUNCTION        1.17          0.157        0.000
  158                  JUNCTION        1.15          0.000        0.000
  159                  JUNCTION        1.15          0.000        0.000
  47b                  JUNCTION        0.40          0.399        0.000
  56b                  JUNCTION        0.05          0.261        0.116
  
  
  *********************
  Node Flooding Summary
  *********************
  
  Flooding refers to all water that overflows a node, whether it ponds or not.
  --------------------------------------------------------------------------
                                                             Total   Maximum
                                 Maximum   Time of Max       Flood    Ponded
                        Hours       Rate    Occurrence      Volume     Depth
  Node                 Flooded       CMS   days hr:min    10^6 ltr    Meters
  --------------------------------------------------------------------------
  4                       0.01     0.464      0  00:51       0.001     0.000
  21                      0.01     1.120      0  00:50       0.001     0.000
  22                      0.16     4.646      0  00:53       1.788     0.000
  119                     0.58     2.622      0  00:39       3.952     0.000
  120                     0.52     3.684      0  00:39       3.337     0.000
  126                     0.28     0.195      0  00:40       0.167     0.000
  128                     0.21     0.914      0  00:41       0.198     0.000
  143                     0.77     0.224      0  00:39       0.246     0.000
  145                     1.49     1.532      0  00:39       5.744     0.000
  147                     0.94     0.776      0  00:37       2.350     0.000
  148                     0.78     8.806      0  00:39      11.195     0.000
  149                     0.08     0.439      0  00:39       0.069     0.000
  156                     0.15     0.129      0  00:39       0.039     0.000
  157                     0.64     0.284      0  00:39       0.338     0.000
  158                     1.15     0.099      0  00:40       0.312     0.000
  159                     1.15     6.005      0  00:39       8.532     0.000
  47b                     0.26     6.290      0  00:50       3.623     0.000
  
  
  ***********************
  Outfall Loading Summary
  ***********************
  
  -----------------------------------------------------------
                         Flow       Avg       Max       Total
                         Freq      Flow      Flow      Volume
  Outfall Node           Pcnt       CMS       CMS    10^6 ltr
  -----------------------------------------------------------
  0                     99.83     9.803    53.773     216.936
  -----------------------------------------------------------
  System                99.83     9.803    53.773     216.936
  
  
  ********************
  Link Flow Summary
  ********************
  
  -----------------------------------------------------------------------------
                                 Maximum  Time of Max   Maximum    Max/    Max/
                                  |Flow|   Occurrence   |Veloc|    Full    Full
  Link                 Type          CMS  days hr:min     m/sec    Flow   Depth
  -----------------------------------------------------------------------------
  1                    CONDUIT    53.773     0  00:52      4.81    0.42    0.77
  2                    CONDUIT    57.180     0  00:54      5.26    1.21    0.74
  3                    CONDUIT    50.928     0  00:52      3.78    1.07    0.95
  4                    CONDUIT    50.063     0  00:51      3.46    1.06    0.99
  5                    CONDUIT    50.083     0  00:51      3.39    1.06    1.00
  6                    CONDUIT    49.996     0  00:51      3.35    1.05    1.00
  7                    CONDUIT    49.878     0  00:51      3.34    1.05    1.00
  8                    CONDUIT    49.864     0  00:51      3.34    1.05    1.00
  9                    CONDUIT    49.567     0  00:51      3.32    1.04    1.00
  10                   CONDUIT    49.609     0  00:51      3.33    1.05    1.00
  11                   CONDUIT    49.457     0  00:51      3.32    1.04    1.00
  12                   CONDUIT    49.307     0  00:51      3.31    1.04    1.00
  13                   CONDUIT    49.329     0  00:51      3.31    1.04    1.00
  14                   CONDUIT    48.903     0  00:51      3.28    1.03    1.00
  15                   CONDUIT    48.932     0  00:51      3.28    1.03    1.00
  16                   CONDUIT    48.954     0  00:51      3.28    1.03    1.00
  17                   CONDUIT    48.916     0  00:50      3.28    1.03    1.00
  18                   CONDUIT    45.226     0  01:01      3.03    0.95    1.00
  19                   CONDUIT    45.201     0  01:00      3.03    0.95    1.00
  20                   CONDUIT    45.055     0  01:00      3.06    0.95    1.00
  21                   CONDUIT    44.607     0  00:50      3.05    0.94    1.00
  22                   CONDUIT    45.221     0  00:50      3.10    0.95    1.00
  23                   CONDUIT    45.977     0  00:54      3.10    0.97    1.00
  24                   CONDUIT    45.931     0  00:54      3.12    0.97    0.99
  25                   CONDUIT    45.923     0  00:54      3.13    0.97    0.98
  26                   CONDUIT    45.713     0  00:54      3.12    0.96    0.98
  27                   CONDUIT    45.020     0  00:54      3.09    0.95    0.98
  28                   CONDUIT    44.989     0  00:54      3.11    0.95    0.97
  29                   CONDUIT    44.930     0  00:54      3.12    0.95    0.97
  30                   CONDUIT    44.865     0  00:53      3.12    0.95    0.96
  31                   CONDUIT    44.787     0  00:53      3.12    0.94    0.96
  32                   CONDUIT    44.781     0  00:53      3.12    0.94    0.96
  33                   CONDUIT    44.489     0  00:53      3.11    0.94    0.96
  34                   CONDUIT    44.491     0  00:53      3.11    0.94    0.96
  35                   CONDUIT    44.495     0  00:53      3.12    0.94    0.96
  36                   CONDUIT    33.425     0  00:52      2.53    0.70    0.92
  37                   CONDUIT    33.479     0  00:49      2.69    0.71    0.86
  38                   CONDUIT    33.437     0  00:49      2.78    0.71    0.82
  39                   CONDUIT    33.369     0  00:49      2.05    0.44    0.84
  40                   CHANNEL    33.408     0  00:49      2.55    0.57    0.82
  41                   CHANNEL    31.293     0  00:47      4.23    0.07    0.33
  42                   CONDUIT    30.932     0  00:47      3.42    0.77    0.61
  43                   CHANNEL    30.561     0  00:46      2.86    0.11    0.44
  44                   CHANNEL    30.503     0  00:46      2.86    0.08    0.32
  45                   CONDUIT    30.494     0  00:46      5.06    0.76    0.52
  46                   CHANNEL    29.244     0  00:47      1.58   10.57    0.85
  47                   CHANNEL    27.802     0  01:00      1.41    0.14    0.70
  47a                  CONDUIT    27.767     0  01:00      3.34    0.31    0.94
  49                   CHANNEL    33.751     0  00:49      1.74    0.58    0.77
  50                   CHANNEL    34.112     0  00:48      1.65    0.89    0.92
  51                   CHANNEL    34.385     0  00:48      2.10    0.14    0.61
  52                   CONDUIT    34.432     0  00:48      5.16    1.20    0.76
  53                   CHANNEL    35.392     0  00:47      3.25    0.49    0.84
  54                   CHANNEL    35.018     0  00:47      2.89    0.48    1.00
  55                   CONDUIT    35.712     0  00:47      2.06    0.32    0.85
  56a                  CHANNEL    36.003     0  00:47      4.26    0.04    0.21
  57                   CHANNEL    35.824     0  00:45      2.10    0.40    0.94
  58                   CHANNEL    41.543     0  00:47      2.94    1.40    0.21
  59                   CHANNEL    40.514     0  00:45      2.76    1.20    0.23
  60                   CHANNEL    41.562     0  00:44      2.76    1.99    0.29
  61                   CHANNEL    43.080     0  00:44      2.21    7.90    0.63
  62                   CHANNEL    43.298     0  00:44      3.88    0.04    0.27
  63                   CHANNEL    57.595     0  00:49      5.02    3.90    0.31
  64                   CHANNEL    41.073     0  00:44      3.74    0.15    0.55
  65                   CONDUIT    32.340     0  00:44      5.35    0.85    0.96
  66                   CHANNEL    32.626     0  00:45      2.33    0.21    0.46
  67                   CHANNEL    30.640     0  00:43      2.20    3.04    0.44
  68                   CHANNEL    29.956     0  00:44      2.33    0.05    0.28
  70                   CHANNEL    29.068     0  00:43      2.66    0.26    0.52
  71                   CHANNEL    28.918     0  00:42      2.09    0.42    0.63
  72                   CHANNEL    24.490     0  00:42      1.43    5.25    0.59
  73                   CHANNEL    24.538     0  00:42      1.69    6.37    0.58
  74                   CHANNEL    24.550     0  00:42      1.23    8.00    0.74
  75                   CHANNEL    24.697     0  00:42      1.50    0.18    0.72
  76                   CHANNEL    24.889     0  00:41      2.10    0.08    0.35
  77                   CHANNEL    25.575     0  00:41      1.58    0.05    0.32
  78                   CHANNEL    25.804     0  00:41      3.84    4.50    0.31
  79                   CHANNEL    25.721     0  00:40      2.10    0.02    0.16
  80                   CONDUIT    14.587     0  00:40      4.26    0.47    0.53
  81                   CONDUIT    14.586     0  00:40      4.29    0.68    0.53
  82                   CONDUIT    14.509     0  00:40      3.97    0.68    0.56
  83                   CONDUIT    14.483     0  00:40      3.98    0.68    0.56
  84                   CONDUIT    14.354     0  00:40      3.96    0.67    0.56
  85                   CONDUIT     9.014     0  00:40      2.70    0.42    0.52
  86                   CONDUIT     8.946     0  00:40      3.02    0.42    0.47
  87                   CONDUIT     8.892     0  00:40      3.21    0.42    0.44
  88                   CONDUIT     8.829     0  00:40      3.33    0.41    0.42
  89                   CONDUIT     8.364     0  00:40      3.27    0.39    0.41
  90                   CONDUIT     8.299     0  00:40      3.34    0.39    0.40
  91                   CONDUIT     9.847     0  00:40      3.84    0.46    0.41
  92                   CONDUIT     9.847     0  00:40      3.61    0.46    0.43
  93                   CONDUIT     9.821     0  00:40      3.60    0.46    0.43
  94                   CONDUIT     9.808     0  00:40      3.59    0.46    0.43
  95                   CONDUIT     9.444     0  00:40      3.50    0.44    0.43
  96                   CONDUIT     9.377     0  00:40      3.51    0.44    0.42
  97                   CONDUIT     9.365     0  00:39      3.54    0.44    0.42
  98                   CONDUIT     9.734     0  00:41      3.27    1.21    0.47
  99                   CONDUIT     9.055     0  00:41      2.70    1.12    0.54
  100                  CONDUIT     9.028     0  00:40      2.48    1.12    0.57
  101                  CONDUIT     9.053     0  00:40      2.33    1.12    0.60
  102                  CONDUIT     8.986     0  00:40      2.24    0.79    0.62
  103                  CONDUIT     8.926     0  00:40      2.22    0.78    0.62
  104                  CONDUIT     8.914     0  00:40      2.21    0.78    0.62
  105                  CONDUIT     8.905     0  00:40      2.20    0.78    0.62
  106                  CONDUIT     8.843     0  00:40      2.19    0.78    0.62
  107                  CONDUIT     8.795     0  00:40      2.18    0.77    0.62
  108                  CONDUIT     8.739     0  00:40      2.16    0.77    0.62
  109                  CONDUIT     8.039     0  00:40      2.01    0.71    0.61
  110                  CONDUIT     8.035     0  00:40      2.02    0.71    0.60
  111                  CONDUIT     8.036     0  00:39      2.04    0.71    0.60
  112                  CONDUIT     8.045     0  00:39      2.07    0.71    0.59
  113                  CONDUIT     7.869     0  00:39      2.75    0.78    0.96
  114                  CONDUIT     7.877     0  00:39      2.97    0.78    0.88
  115                  CONDUIT     7.866     0  00:39      3.09    0.78    0.85
  116                  CONDUIT     7.853     0  00:39      3.11    0.78    0.84
  117                  CONDUIT     4.454     0  00:56      6.51    1.52    0.92
  118                  CONDUIT     4.454     0  00:56      5.67    1.52    1.00
  119                  CONDUIT     2.636     0  00:33      1.00    0.35    1.00
  120                  CONDUIT     2.541     0  00:32      1.66    0.34    1.00
  121                  CONDUIT     5.018     0  00:39      1.79    0.66    0.95
  122                  CONDUIT     4.953     0  00:39      2.02    0.66    0.82
  123                  CONDUIT     4.722     0  00:39      2.15    0.63    0.73
  124                  CONDUIT     5.492     0  00:40      1.83    0.46    1.00
  125                  CONDUIT     5.416     0  00:56      1.89    1.01    1.00
  126                  CONDUIT     5.416     0  00:56      1.81    1.01    1.00
  127                  CONDUIT     5.591     0  00:50      1.86    1.05    1.00
  128                  CONDUIT     5.585     0  00:51      1.86    1.05    1.00
  129                  CONDUIT     0.876     0  00:39      0.33    0.16    0.98
  130                  CONDUIT     0.539     0  00:39      0.33    0.10    0.73
  131                  CONDUIT     0.005     0  00:37      0.08    0.00    0.26
  132                  CONDUIT     4.943     0  00:40      2.81    0.27    0.35
  133                  CONDUIT     2.244     0  00:40      1.67    0.12    0.30
  134                  CONDUIT     2.237     0  00:39      1.83    0.12    0.24
  135                  CONDUIT     2.248     0  00:39      1.94    0.12    0.21
  136                  CONDUIT     2.249     0  00:39      2.04    0.12    0.20
  137                  CONDUIT     1.333     0  00:40      1.40    0.23    0.21
  138                  CONDUIT     1.293     0  00:37      1.15    1.84    0.58
  139                  CONDUIT     1.244     0  00:39      0.98    1.77    0.76
  140                  CONDUIT     1.239     0  00:30      1.06    1.76    0.84
  141                  CONDUIT     1.382     0  00:27      1.15    1.96    0.90
  142                  CONDUIT     1.584     0  00:27      1.19    2.25    0.94
  143                  CONDUIT     1.791     0  00:26      1.19    2.54    0.98
  144                  CONDUIT     2.034     0  00:26      1.17    2.89    1.00
  145                  CONDUIT     2.290     0  00:26      1.23    3.25    1.00
  146                  CONDUIT     2.692     0  00:26      1.39    3.82    1.00
  147                  CONDUIT     2.692     0  00:26      1.35    3.82    1.00
  148                  CONDUIT     3.299     0  00:43      1.65    4.68    1.00
  149                  CONDUIT     3.938     0  00:40      1.97    5.59    1.00
  150                  CONDUIT     4.376     0  00:39      2.19    0.98    1.00
  151                  CONDUIT     0.762     0  00:25      1.49    0.54    1.00
  152                  CONDUIT     0.758     0  00:25      1.67    1.08    1.00
  153                  CONDUIT     0.766     0  00:25      1.64    1.09    1.00
  154                  CONDUIT     0.779     0  00:24      1.62    1.11    1.00
  155                  CONDUIT     0.733     0  00:24      1.49    1.04    1.00
  156                  CONDUIT     0.756     0  00:24      1.54    1.08    1.00
  157                  CONDUIT     0.725     0  00:24      1.47    1.03    1.00
  158                  CONDUIT     0.691     0  01:33      1.38    0.98    1.00
  159                  CONDUIT     0.703     0  00:24      1.43    1.00    1.00
  160                  CONDUIT    11.093     0  00:53      1.28    0.34    0.92
  161                  CONDUIT    11.095     0  00:52      1.40    0.34    0.87
  162                  CONDUIT     2.349     0  01:13      0.28    0.07    0.83
  163                  CONDUIT     2.154     0  01:13      0.28    0.07    0.79
  164                  CONDUIT     1.959     0  01:13      0.39    0.06    0.74
  165                  CONDUIT     1.802     0  00:38      0.61    0.05    0.70
  166                  CONDUIT     1.630     0  00:38      0.57    0.05    0.66
  167                  CONDUIT     1.755     0  00:38      0.66    0.05    0.60
  168                  CONDUIT     2.031     0  00:39      0.79    0.06    0.53
  169                  CONDUIT     1.839     0  00:39      0.73    0.06    0.49
  170                  CONDUIT     1.915     0  00:39      0.79    0.06    0.45
  171                  CONDUIT     1.853     0  00:39      0.79    0.06    0.39
  172                  CONDUIT     2.300     0  00:39      0.48    0.06    0.69
  173                  CONDUIT     2.798     0  00:40      0.92    0.05    0.44
  174                  CONDUIT     0.026     0  00:37      0.04    0.00    0.14
  47b                  CONDUIT    27.765     0  01:00      3.57    0.90    1.00
  48                   CONDUIT    33.724     0  00:50      3.78    1.04    1.00
  56                   CONDUIT    35.395     0  00:45      4.33   10.05    0.88
  80-a                 CONDUIT    11.039     0  00:40      4.26    0.35    0.48
  81-a                 CONDUIT    10.983     0  00:40      4.17    0.50    0.47
  82-a                 CONDUIT    10.930     0  00:40      3.89    0.50    0.50
  83-a                 CONDUIT    10.911     0  00:40      3.90    0.50    0.50
  84-a                 CONDUIT    10.816     0  00:40      3.88    0.49    0.50
  85-a                 CONDUIT     6.864     0  00:40      2.65    0.31    0.47
  86-a                 CONDUIT     6.859     0  00:40      2.94    0.31    0.42
  87-a                 CONDUIT     6.858     0  00:40      3.13    0.31    0.40
  88-a                 CONDUIT     6.845     0  00:40      3.24    0.31    0.38
  89-a                 CONDUIT     6.514     0  00:40      3.19    0.30    0.37
  90-a                 CONDUIT     6.493     0  00:40      3.27    0.30    0.36
  69                   CONDUIT    29.964     0  00:43      3.46    0.54    0.75
  
  
  ***************************
  Flow Classification Summary
  ***************************
  
  -------------------------------------------------------------------------------------
                      Adjusted    ---------- Fraction of Time in Flow Class ---------- 
                       /Actual         Up    Down  Sub   Sup   Up    Down  Norm  Inlet 
  Conduit               Length    Dry  Dry   Dry   Crit  Crit  Crit  Crit  Ltd   Ctrl  
  -------------------------------------------------------------------------------------
  1                       1.00   0.00  0.00  0.00  0.92  0.08  0.00  0.00  0.97  0.00
  2                       1.00   0.00  0.00  0.00  0.48  0.52  0.00  0.00  0.00  0.00
  3                       1.00   0.00  0.00  0.00  1.00  0.00  0.00  0.00  0.82  0.00
  4                       1.00   0.00  0.00  0.00  1.00  0.00  0.00  0.00  0.91  0.00
  5                       1.00   0.00  0.00  0.00  1.00  0.00  0.00  0.00  0.91  0.00
  6                       1.00   0.00  0.00  0.00  1.00  0.00  0.00  0.00  0.93  0.00
  7                       1.00   0.00  0.00  0.00  1.00  0.00  0.00  0.00  0.94  0.00
  8                       1.00   0.00  0.00  0.00  1.00  0.00  0.00  0.00  0.94  0.00
  9                       1.00   0.00  0.00  0.00  1.00  0.00  0.00  0.00  0.95  0.00
  10                      1.00   0.00  0.00  0.00  1.00  0.00  0.00  0.00  0.95  0.00
  11                      1.00   0.00  0.00  0.00  1.00  0.00  0.00  0.00  0.95  0.00
  12                      1.00   0.00  0.00  0.00  1.00  0.00  0.00  0.00  0.95  0.00
  13                      1.00   0.00  0.00  0.00  1.00  0.00  0.00  0.00  0.95  0.00
  14                      1.00   0.00  0.00  0.00  1.00  0.00  0.00  0.00  0.95  0.00
  15                      1.00   0.00  0.00  0.00  1.00  0.00  0.00  0.00  0.94  0.00
  16                      1.00   0.00  0.00  0.00  1.00  0.00  0.00  0.00  0.94  0.00
  17                      1.00   0.00  0.00  0.00  1.00  0.00  0.00  0.00  0.94  0.00
  18                      1.00   0.00  0.00  0.00  1.00  0.00  0.00  0.00  0.92  0.00
  19                      1.00   0.00  0.00  0.00  1.00  0.00  0.00  0.00  0.92  0.00
  20                      1.00   0.00  0.00  0.00  1.00  0.00  0.00  0.00  0.94  0.00
  21                      1.00   0.00  0.00  0.00  1.00  0.00  0.00  0.00  0.94  0.00
  22                      1.00   0.00  0.00  0.00  1.00  0.00  0.00  0.00  0.93  0.00
  23                      1.00   0.00  0.00  0.00  1.00  0.00  0.00  0.00  0.94  0.00
  24                      1.00   0.00  0.00  0.00  1.00  0.00  0.00  0.00  0.93  0.00
  25                      1.00   0.00  0.00  0.00  1.00  0.00  0.00  0.00  0.86  0.00
  26                      1.00   0.00  0.00  0.00  1.00  0.00  0.00  0.00  0.92  0.00
  27                      1.00   0.00  0.00  0.00  1.00  0.00  0.00  0.00  0.95  0.00
  28                      1.00   0.00  0.00  0.00  1.00  0.00  0.00  0.00  0.93  0.00
  29                      1.00   0.00  0.00  0.00  1.00  0.00  0.00  0.00  0.95  0.00
  30                      1.00   0.00  0.00  0.00  1.00  0.00  0.00  0.00  0.94  0.00
  31                      1.00   0.00  0.00  0.00  1.00  0.00  0.00  0.00  0.95  0.00
  32                      1.00   0.00  0.00  0.00  1.00  0.00  0.00  0.00  0.94  0.00
  33                      1.00   0.00  0.00  0.00  1.00  0.00  0.00  0.00  0.95  0.00
  34                      1.00   0.00  0.00  0.00  1.00  0.00  0.00  0.00  0.93  0.00
  35                      1.00   0.00  0.00  0.00  1.00  0.00  0.00  0.00  0.93  0.00
  36                      1.00   0.00  0.00  0.00  1.00  0.00  0.00  0.00  0.93  0.00
  37                      1.00   0.00  0.00  0.00  1.00  0.00  0.00  0.00  0.89  0.00
  38                      1.00   0.00  0.00  0.00  1.00  0.00  0.00  0.00  0.91  0.00
  39                      1.00   0.00  0.00  0.00  1.00  0.00  0.00  0.00  0.58  0.00
  40                      1.00   0.00  0.00  0.00  1.00  0.00  0.00  0.00  0.00  0.00
  41                      1.00   0.00  0.00  0.00  0.23  0.77  0.00  0.00  0.96  0.00
  42                      1.00   0.00  0.00  0.00  1.00  0.00  0.00  0.00  0.65  0.00
  43                      1.00   0.00  0.00  0.00  0.15  0.85  0.00  0.00  0.09  0.00
  44                      1.00   0.00  0.00  0.00  0.84  0.16  0.00  0.00  0.96  0.00
  45                      1.00   0.00  0.00  0.00  0.00  1.00  0.00  0.00  0.00  0.00
  46                      1.00   0.00  0.00  0.00  1.00  0.00  0.00  0.00  0.00  0.00
  47                      1.00   0.00  0.00  0.00  1.00  0.00  0.00  0.00  0.94  0.00
  47a                     1.00   0.00  0.00  0.00  0.84  0.16  0.00  0.00  0.87  0.00
  49                      1.00   0.00  0.00  0.00  1.00  0.00  0.00  0.00  0.00  0.00
  50                      1.00   0.00  0.00  0.00  1.00  0.00  0.00  0.00  0.35  0.00
  51                      1.00   0.00  0.00  0.00  1.00  0.00  0.00  0.00  0.99  0.00
  52                      1.00   0.00  0.00  0.00  0.52  0.48  0.00  0.00  0.00  0.00
  53                      1.00   0.00  0.00  0.00  0.06  0.94  0.00  0.00  0.12  0.00
  54                      1.00   0.00  0.00  0.00  1.00  0.00  0.00  0.00  0.89  0.00
  55                      1.00   0.00  0.00  0.00  1.00  0.00  0.00  0.00  0.85  0.00
  56a                     1.00   0.00  0.00  0.00  0.00  0.99  0.00  0.00  0.14  0.00
  57                      1.00   0.00  0.00  0.00  1.00  0.00  0.00  0.00  0.96  0.00
  58                      1.00   0.00  0.00  0.00  1.00  0.00  0.00  0.00  0.00  0.00
  59                      1.00   0.00  0.00  0.00  1.00  0.00  0.00  0.00  0.00  0.00
  60                      1.00   0.00  0.00  0.00  1.00  0.00  0.00  0.00  0.00  0.00
  61                      1.00   0.00  0.00  0.00  1.00  0.00  0.00  0.00  0.00  0.00
  62                      1.00   0.00  0.00  0.00  0.03  0.20  0.00  0.77  0.01  0.00
  63                      1.00   0.00  0.00  0.00  0.55  0.45  0.00  0.00  0.00  0.00
  64                      1.00   0.00  0.00  0.00  0.85  0.15  0.00  0.00  0.87  0.00
  65                      1.00   0.00  0.00  0.00  0.02  0.98  0.00  0.00  0.00  0.00
  66                      1.00   0.00  0.00  0.00  1.00  0.00  0.00  0.00  0.00  0.00
  67                      1.00   0.00  0.00  0.00  1.00  0.00  0.00  0.00  0.00  0.00
  68                      1.00   0.00  0.00  0.00  0.18  0.00  0.00  0.81  0.00  0.00
  70                      1.00   0.00  0.00  0.00  1.00  0.00  0.00  0.00  0.66  0.00
  71                      1.00   0.00  0.00  0.00  1.00  0.00  0.00  0.00  0.66  0.00
  72                      1.00   0.00  0.00  0.00  1.00  0.00  0.00  0.00  0.00  0.00
  73                      1.00   0.00  0.00  0.00  1.00  0.00  0.00  0.00  0.00  0.00
  74                      1.00   0.00  0.00  0.00  1.00  0.00  0.00  0.00  0.00  0.00
  75                      1.00   0.00  0.00  0.00  1.00  0.00  0.00  0.00  0.93  0.00
  76                      1.00   0.00  0.00  0.00  1.00  0.00  0.00  0.00  0.92  0.00
  77                      1.00   0.00  0.00  0.00  1.00  0.00  0.00  0.00  0.97  0.00
  78                      1.00   0.00  0.00  0.00  0.51  0.49  0.00  0.00  0.00  0.00
  79                      1.00   0.00  0.00  0.00  1.00  0.00  0.00  0.00  0.98  0.00
  80                      1.00   0.00  0.00  0.00  0.34  0.65  0.00  0.00  0.89  0.00
  81                      1.00   0.00  0.00  0.00  0.02  0.98  0.00  0.00  0.13  0.00
  82                      1.00   0.00  0.00  0.00  0.06  0.94  0.00  0.00  0.93  0.00
  83                      1.00   0.00  0.00  0.00  0.06  0.94  0.00  0.00  0.62  0.00
  84                      1.00   0.00  0.00  0.00  0.06  0.94  0.00  0.00  0.87  0.00
  85                      1.00   0.00  0.00  0.00  0.36  0.64  0.00  0.00  0.85  0.00
  86                      1.00   0.00  0.00  0.00  0.08  0.92  0.00  0.00  0.70  0.00
  87                      1.00   0.00  0.00  0.00  0.08  0.92  0.00  0.00  0.75  0.00
  88                      1.00   0.00  0.00  0.00  0.08  0.92  0.00  0.00  0.76  0.00
  89                      1.00   0.00  0.00  0.00  0.08  0.92  0.00  0.00  0.92  0.00
  90                      1.00   0.00  0.00  0.00  0.08  0.92  0.00  0.00  0.85  0.00
  91                      1.00   0.00  0.00  0.00  0.12  0.87  0.00  0.00  0.97  0.00
  92                      1.00   0.00  0.00  0.00  0.09  0.91  0.00  0.00  0.80  0.00
  93                      1.00   0.00  0.00  0.00  0.09  0.91  0.00  0.00  0.77  0.00
  94                      1.00   0.00  0.00  0.00  0.09  0.91  0.00  0.00  0.76  0.00
  95                      1.00   0.00  0.00  0.00  0.10  0.90  0.00  0.00  0.92  0.00
  96                      1.00   0.00  0.00  0.00  0.09  0.90  0.00  0.00  0.77  0.00
  97                      1.00   0.00  0.00  0.00  0.09  0.90  0.00  0.00  0.83  0.00
  98                      1.00   0.00  0.00  0.00  0.60  0.40  0.00  0.00  0.00  0.00
  99                      1.00   0.00  0.00  0.00  1.00  0.00  0.00  0.00  0.62  0.00
  100                     1.00   0.00  0.00  0.00  1.00  0.00  0.00  0.00  0.62  0.00
  101                     1.00   0.00  0.00  0.00  1.00  0.00  0.00  0.00  0.63  0.00
  102                     1.00   0.00  0.00  0.00  1.00  0.00  0.00  0.00  0.77  0.00
  103                     1.00   0.00  0.00  0.00  1.00  0.00  0.00  0.00  0.78  0.00
  104                     1.00   0.00  0.00  0.00  1.00  0.00  0.00  0.00  0.81  0.00
  105                     1.00   0.00  0.00  0.00  1.00  0.00  0.00  0.00  0.83  0.00
  106                     1.00   0.00  0.00  0.00  1.00  0.00  0.00  0.00  0.86  0.00
  107                     1.00   0.00  0.00  0.00  1.00  0.00  0.00  0.00  0.89  0.00
  108                     1.00   0.00  0.00  0.00  1.00  0.00  0.00  0.00  0.90  0.00
  109                     1.00   0.00  0.00  0.00  1.00  0.00  0.00  0.00  0.83  0.00
  110                     1.00   0.00  0.00  0.00  1.00  0.00  0.00  0.00  0.88  0.00
  111                     1.00   0.00  0.00  0.00  1.00  0.00  0.00  0.00  0.90  0.00
  112                     1.00   0.00  0.00  0.00  1.00  0.00  0.00  0.00  0.92  0.00
  113                     1.00   0.00  0.00  0.00  1.00  0.00  0.00  0.00  0.95  0.00
  114                     1.00   0.00  0.00  0.00  0.50  0.50  0.00  0.00  0.92  0.00
  115                     1.00   0.00  0.00  0.00  0.50  0.50  0.00  0.00  0.93  0.00
  116                     1.00   0.00  0.00  0.00  0.50  0.50  0.00  0.00  0.95  0.00
  117                     1.00   0.00  0.00  0.00  0.00  1.00  0.00  0.00  0.02  0.00
  118                     1.00   0.00  0.00  0.00  0.16  0.83  0.00  0.00  0.94  0.00
  119                     1.00   0.00  0.00  0.00  1.00  0.00  0.00  0.00  0.95  0.00
  120                     1.00   0.00  0.00  0.00  1.00  0.00  0.00  0.00  0.94  0.00
  121                     1.00   0.00  0.00  0.00  1.00  0.00  0.00  0.00  0.94  0.00
  122                     1.00   0.00  0.00  0.00  1.00  0.00  0.00  0.00  0.97  0.00
  123                     1.00   0.00  0.00  0.00  1.00  0.00  0.00  0.00  0.97  0.00
  124                     1.00   0.00  0.00  0.00  1.00  0.00  0.00  0.00  0.96  0.00
  125                     1.00   0.00  0.00  0.00  1.00  0.00  0.00  0.00  0.00  0.00
  126                     1.00   0.00  0.00  0.00  1.00  0.00  0.00  0.00  0.94  0.00
  127                     1.00   0.00  0.00  0.00  1.00  0.00  0.00  0.00  0.93  0.00
  128                     1.00   0.00  0.00  0.00  1.00  0.00  0.00  0.00  0.94  0.00
  129                     1.00   0.00  0.00  0.00  1.00  0.00  0.00  0.00  0.94  0.00
  130                     1.00   0.00  0.00  0.00  1.00  0.00  0.00  0.00  0.85  0.00
  131                     1.00   0.00  0.09  0.00  0.91  0.00  0.00  0.00  0.93  0.00
  132                     1.00   0.00  0.00  0.00  0.38  0.62  0.00  0.00  0.17  0.00
  133                     1.00   0.00  0.00  0.00  0.80  0.20  0.00  0.00  0.75  0.00
  134                     1.00   0.00  0.00  0.00  0.56  0.44  0.00  0.00  0.78  0.00
  135                     1.00   0.00  0.00  0.00  0.45  0.55  0.00  0.00  0.83  0.00
  136                     1.00   0.00  0.00  0.00  0.40  0.60  0.00  0.00  0.85  0.00
  137                     1.00   0.00  0.00  0.00  1.00  0.00  0.00  0.00  0.00  0.00
  138                     1.00   0.00  0.00  0.00  1.00  0.00  0.00  0.00  0.00  0.00
  139                     1.00   0.00  0.00  0.00  1.00  0.00  0.00  0.00  0.00  0.00
  140                     1.00   0.00  0.00  0.00  1.00  0.00  0.00  0.00  0.00  0.00
  141                     1.00   0.00  0.00  0.00  1.00  0.00  0.00  0.00  0.00  0.00
  142                     1.00   0.00  0.00  0.00  1.00  0.00  0.00  0.00  0.00  0.00
  143                     1.00   0.00  0.00  0.00  1.00  0.00  0.00  0.00  0.00  0.00
  144                     1.00   0.00  0.00  0.00  1.00  0.00  0.00  0.00  0.00  0.00
  145                     1.00   0.00  0.00  0.00  1.00  0.00  0.00  0.00  0.00  0.00
  146                     1.00   0.00  0.00  0.00  1.00  0.00  0.00  0.00  0.00  0.00
  147                     1.00   0.00  0.00  0.00  1.00  0.00  0.00  0.00  0.00  0.00
  148                     1.00   0.00  0.00  0.00  1.00  0.00  0.00  0.00  0.00  0.00
  149                     1.00   0.00  0.00  0.00  1.00  0.00  0.00  0.00  0.00  0.00
  150                     1.00   0.00  0.00  0.00  1.00  0.00  0.00  0.00  0.87  0.00
  151                     1.00   0.00  0.00  0.00  1.00  0.00  0.00  0.00  0.06  0.00
  152                     1.00   0.00  0.00  0.00  1.00  0.00  0.00  0.00  0.93  0.00
  153                     1.00   0.00  0.00  0.00  1.00  0.00  0.00  0.00  0.92  0.00
  154                     1.00   0.00  0.00  0.00  1.00  0.00  0.00  0.00  0.92  0.00
  155                     1.00   0.00  0.00  0.00  1.00  0.00  0.00  0.00  0.93  0.00
  156                     1.00   0.00  0.00  0.00  1.00  0.00  0.00  0.00  0.92  0.00
  157                     1.00   0.00  0.00  0.00  1.00  0.00  0.00  0.00  0.93  0.00
  158                     1.00   0.00  0.00  0.00  1.00  0.00  0.00  0.00  0.93  0.00
  159                     1.00   0.00  0.00  0.00  1.00  0.00  0.00  0.00  0.92  0.00
  160                     1.00   0.00  0.00  0.00  1.00  0.00  0.00  0.00  0.83  0.00
  161                     1.00   0.00  0.00  0.00  1.00  0.00  0.00  0.00  0.84  0.00
  162                     1.00   0.00  0.00  0.00  1.00  0.00  0.00  0.00  0.78  0.00
  163                     1.00   0.00  0.00  0.00  1.00  0.00  0.00  0.00  0.85  0.00
  164                     1.00   0.00  0.00  0.00  1.00  0.00  0.00  0.00  0.89  0.00
  165                     1.00   0.00  0.00  0.00  1.00  0.00  0.00  0.00  0.86  0.00
  166                     1.00   0.00  0.00  0.00  1.00  0.00  0.00  0.00  0.93  0.00
  167                     1.00   0.00  0.00  0.00  1.00  0.00  0.00  0.00  0.92  0.00
  168                     1.00   0.00  0.00  0.00  1.00  0.00  0.00  0.00  0.89  0.00
  169                     1.00   0.00  0.00  0.00  1.00  0.00  0.00  0.00  0.95  0.00
  170                     1.00   0.00  0.00  0.00  1.00  0.00  0.00  0.00  0.91  0.00
  171                     1.00   0.00  0.00  0.00  1.00  0.00  0.00  0.00  0.93  0.00
  172                     1.00   0.00  0.00  0.00  1.00  0.00  0.00  0.00  0.86  0.00
  173                     1.00   0.00  0.00  0.00  1.00  0.00  0.00  0.00  0.96  0.00
  174                     1.00   0.00  0.09  0.00  0.91  0.00  0.00  0.00  0.99  0.00
  47b                     1.00   0.00  0.00  0.00  0.20  0.80  0.00  0.00  0.00  0.00
  48                      1.00   0.00  0.00  0.00  1.00  0.00  0.00  0.00  0.00  0.00
  56                      1.00   0.00  0.00  0.00  1.00  0.00  0.00  0.00  0.00  0.00
  80-a                    1.00   0.00  0.00  0.00  0.07  0.93  0.00  0.00  0.88  0.00
  81-a                    1.00   0.00  0.00  0.00  0.00  1.00  0.00  0.00  0.22  0.00
  82-a                    1.00   0.00  0.00  0.00  0.05  0.94  0.00  0.00  0.92  0.00
  83-a                    1.00   0.00  0.00  0.00  0.04  0.96  0.00  0.00  0.61  0.00
  84-a                    1.00   0.00  0.00  0.00  0.04  0.96  0.00  0.00  0.65  0.00
  85-a                    1.00   0.00  0.00  0.00  0.34  0.66  0.00  0.00  0.77  0.00
  86-a                    1.00   0.00  0.00  0.00  0.08  0.92  0.00  0.00  0.55  0.00
  87-a                    1.00   0.00  0.00  0.00  0.06  0.93  0.00  0.00  0.60  0.00
  88-a                    1.00   0.00  0.00  0.00  0.06  0.93  0.00  0.00  0.61  0.00
  89-a                    1.00   0.00  0.00  0.00  0.07  0.93  0.00  0.00  0.91  0.00
  90-a                    1.00   0.00  0.00  0.00  0.07  0.93  0.00  0.00  0.63  0.00
  69                      1.00   0.00  0.00  0.00  0.99  0.01  0.00  0.00  0.66  0.00
  
  
  *************************
  Conduit Surcharge Summary
  *************************
  
  ----------------------------------------------------------------------------
                                                           Hours        Hours 
                         --------- Hours Full --------   Above Full   Capacity
  Conduit                Both Ends  Upstream  Dnstream   Normal Flow   Limited
  ----------------------------------------------------------------------------
  2                           0.01      0.01      0.01      0.20         0.01
  3                           0.01      0.01      0.01      0.25         0.01
  4                           0.01      0.01      0.01      0.24         0.01
  5                           0.01      0.01      0.01      0.24         0.01
  6                           0.11      0.11      0.11      0.24         0.11
  7                           0.21      0.21      0.21      0.25         0.21
  8                           0.23      0.23      0.23      0.25         0.22
  9                           0.23      0.23      0.23      0.25         0.23
  10                          0.24      0.24      0.24      0.24         0.23
  11                          0.24      0.24      0.24      0.24         0.23
  12                          0.24      0.24      0.24      0.24         0.23
  13                          0.24      0.24      0.24      0.24         0.23
  14                          0.24      0.24      0.24      0.23         0.22
  15                          0.24      0.24      0.24      0.23         0.22
  16                          0.24      0.24      0.24      0.23         0.22
  17                          0.24      0.24      0.24      0.23         0.22
  18                          0.22      0.22      0.22      0.01         0.01
  19                          0.21      0.21      0.21      0.01         0.01
  20                          0.20      0.20      0.20      0.01         0.01
  21                          0.18      0.18      0.18      0.01         0.01
  22                          0.16      0.16      0.16      0.01         0.01
  39                          0.01      0.01      0.01      0.44         0.01
  42                          0.01      0.01      0.01      0.49         0.01
  46                          0.01      0.01      0.01      2.52         0.01
  52                          0.01      0.01      0.01      0.60         0.01
  54                          0.19      0.19      0.19      0.01         0.01
  58                          0.01      0.01      0.01      0.12         0.01
  59                          0.01      0.01      0.01      0.04         0.01
  60                          0.01      0.01      0.01      0.39         0.01
  61                          0.01      0.01      0.01      1.18         0.01
  63                          0.01      0.01      0.01      0.53         0.01
  65                          0.01      0.01      0.01      0.42         0.01
  67                          0.01      0.01      0.01      0.76         0.01
  72                          0.01      0.01      0.01      1.14         0.01
  73                          0.01      0.01      0.01      1.31         0.01
  74                          0.01      0.01      0.01      1.64         0.01
  78                          0.01      0.01      0.01      0.99         0.01
  98                          0.01      0.01      0.01      0.13         0.01
  99                          0.01      0.01      0.01      0.12         0.01
  100                         0.01      0.01      0.01      0.12         0.01
  101                         0.01      0.01      0.01      0.12         0.01
  117                         0.01      0.01      0.01      0.86         0.01
  118                         0.76      0.76      0.76      0.86         0.76
  119                         0.73      0.73      0.73      0.01         0.01
  120                         0.65      0.65      0.65      0.01         0.01
  124                         0.54      0.54      0.54      0.01         0.01
  125                         0.42      0.42      0.42      0.29         0.29
  126                         0.39      0.39      0.39      0.29         0.29
  127                         0.37      0.37      0.37      0.29         0.29
  128                         0.36      0.36      0.36      0.29         0.29
  138                         0.01      0.01      0.01      2.66         0.01
  139                         0.01      0.01      0.01      2.66         0.01
  140                         0.01      0.01      0.01      2.66         0.01
  141                         0.01      0.01      0.01      2.66         0.01
  142                         0.01      0.01      0.01      2.66         0.01
  143                         0.01      0.01      0.01      2.66         0.01
  144                         0.01      0.01      0.01      2.65         0.01
  145                         1.64      1.64      1.65      2.64         1.64
  146                         1.77      1.77      1.77      2.64         1.77
  147                         1.85      1.85      1.85      2.63         1.85
  148                         1.93      1.93      1.93      2.63         1.93
  149                         1.97      1.97      1.97      1.44         1.44
  150                         0.99      0.99      0.99      0.01         0.01
  151                         0.62      0.62      0.62      0.01         0.01
  152                         1.19      1.19      1.19      0.04         0.04
  153                         1.19      1.19      1.19      0.04         0.03
  154                         1.18      1.18      1.18      0.04         0.03
  155                         1.18      1.18      1.18      0.01         0.01
  156                         1.17      1.17      1.18      0.01         0.01
  157                         1.17      1.17      1.17      0.01         0.01
  159                         0.01      0.01      0.01      0.01         0.01
  47b                         0.34      0.34      0.34      0.01         0.34
  48                          0.40      0.40      0.40      0.56         0.40
  56                          0.01      0.01      0.01      1.71         0.01
  69                          0.01      0.01      0.01      0.42         0.01
  

  Analysis begun on:  Thu Jul 10 15:41:12 2014
  Analysis ended on:  Thu Jul 10 15:41:18 2014
  Total elapsed time: 00:00:06