
  EPA STORM WATER MANAGEMENT MODEL - VERSION 5.0 (Build 5.0.022)
  --------------------------------------------------------------

  
  *********************************************************
  NOTE: The summary statistics displayed in this report are
  based on results found at every computational time step,  
  not just on results from each reporting time step.
  *********************************************************
  
  ****************
  Analysis Options
  ****************
  Flow Units ............... CMS
  Process Models:
    Rainfall/Runoff ........ YES
    Snowmelt ............... NO
    Groundwater ............ NO
    Flow Routing ........... YES
    Ponding Allowed ........ NO
    Water Quality .......... NO
  Infiltration Method ...... CURVE_NUMBER
  Flow Routing Method ...... DYNWAVE
  Starting Date ............ FEB-04-2013 00:00:00
  Ending Date .............. FEB-05-2013 00:00:00
  Antecedent Dry Days ...... 0.0
  Report Time Step ......... 00:05:00
  Wet Time Step ............ 00:15:00
  Dry Time Step ............ 00:15:00
  Routing Time Step ........ 30.00 sec
  

  WARNING 01: wet weather time step reduced to recording interval for Rain Gage 300_main_street

  WARNING 04: minimum elevation drop used for Conduit 46

  WARNING 04: minimum elevation drop used for Conduit 58

  WARNING 04: minimum elevation drop used for Conduit 59

  WARNING 04: minimum elevation drop used for Conduit 60

  WARNING 04: minimum elevation drop used for Conduit 61

  WARNING 04: minimum elevation drop used for Conduit 63

  WARNING 04: minimum elevation drop used for Conduit 67

  WARNING 04: minimum elevation drop used for Conduit 72

  WARNING 04: minimum elevation drop used for Conduit 73

  WARNING 04: minimum elevation drop used for Conduit 74

  WARNING 04: minimum elevation drop used for Conduit 78

  WARNING 04: minimum elevation drop used for Conduit 56

  WARNING 02: maximum depth increased for Node 22

  WARNING 02: maximum depth increased for Node 23

  WARNING 02: maximum depth increased for Node 24

  WARNING 02: maximum depth increased for Node 25

  WARNING 02: maximum depth increased for Node 32

  WARNING 02: maximum depth increased for Node 33

  WARNING 02: maximum depth increased for Node 34

  WARNING 02: maximum depth increased for Node 35

  WARNING 02: maximum depth increased for Node 36

  WARNING 02: maximum depth increased for Node 37

  WARNING 02: maximum depth increased for Node 40

  WARNING 02: maximum depth increased for Node 41

  WARNING 02: maximum depth increased for Node 42

  WARNING 02: maximum depth increased for Node 43

  WARNING 02: maximum depth increased for Node 44

  WARNING 02: maximum depth increased for Node 46

  WARNING 02: maximum depth increased for Node 47

  WARNING 02: maximum depth increased for Node 48

  WARNING 02: maximum depth increased for Node 49

  WARNING 02: maximum depth increased for Node 50

  WARNING 02: maximum depth increased for Node 51

  WARNING 02: maximum depth increased for Node 52

  WARNING 02: maximum depth increased for Node 55

  WARNING 02: maximum depth increased for Node 56a

  WARNING 02: maximum depth increased for Node 57

  WARNING 02: maximum depth increased for Node 58

  WARNING 02: maximum depth increased for Node 59

  WARNING 02: maximum depth increased for Node 60

  WARNING 02: maximum depth increased for Node 61

  WARNING 02: maximum depth increased for Node 62

  WARNING 02: maximum depth increased for Node 63

  WARNING 02: maximum depth increased for Node 64

  WARNING 02: maximum depth increased for Node 65

  WARNING 02: maximum depth increased for Node 66

  WARNING 02: maximum depth increased for Node 67

  WARNING 02: maximum depth increased for Node 68

  WARNING 02: maximum depth increased for Node 69

  WARNING 02: maximum depth increased for Node 70

  WARNING 02: maximum depth increased for Node 71

  WARNING 02: maximum depth increased for Node 72

  WARNING 02: maximum depth increased for Node 73

  WARNING 02: maximum depth increased for Node 74

  WARNING 02: maximum depth increased for Node 75

  WARNING 02: maximum depth increased for Node 76

  WARNING 02: maximum depth increased for Node 77

  WARNING 02: maximum depth increased for Node 78

  WARNING 02: maximum depth increased for Node 79

  WARNING 02: maximum depth increased for Node 92

  WARNING 02: maximum depth increased for Node 134

  WARNING 02: maximum depth increased for Node 135

  WARNING 02: maximum depth increased for Node 136

  WARNING 02: maximum depth increased for Node 138

  WARNING 02: maximum depth increased for Node 139

  WARNING 02: maximum depth increased for Node 140

  WARNING 02: maximum depth increased for Node 141

  WARNING 02: maximum depth increased for Node 142

  WARNING 02: maximum depth increased for Node 143

  WARNING 02: maximum depth increased for Node 158

  WARNING 02: maximum depth increased for Node 159

  WARNING 02: maximum depth increased for Node 163

  WARNING 02: maximum depth increased for Node 164

  WARNING 02: maximum depth increased for Node 165

  WARNING 02: maximum depth increased for Node 166

  WARNING 02: maximum depth increased for Node 167

  WARNING 02: maximum depth increased for Node 168

  WARNING 02: maximum depth increased for Node 170

  WARNING 02: maximum depth increased for Node 171

  WARNING 02: maximum depth increased for Node 173

  WARNING 02: maximum depth increased for Node 174
  
  **************************        Volume         Depth
  Runoff Quantity Continuity     hectare-m            mm
  **************************     ---------       -------
  Total Precipitation ......        40.126        37.338
  Evaporation Loss .........         0.000         0.000
  Infiltration Loss ........        13.603        12.658
  Surface Runoff ...........        25.955        24.151
  Final Surface Storage ....         0.578         0.537
  Continuity Error (%) .....        -0.023
  
  
  **************************        Volume        Volume
  Flow Routing Continuity        hectare-m      10^6 ltr
  **************************     ---------     ---------
  Dry Weather Inflow .......         0.000         0.000
  Wet Weather Inflow .......        25.954       259.543
  Groundwater Inflow .......         0.000         0.000
  RDII Inflow ..............         0.000         0.000
  External Inflow ..........         0.000         0.000
  External Outflow .........        21.511       215.113
  Internal Outflow .........         4.342        43.425
  Storage Losses ...........         0.000         0.000
  Initial Stored Volume ....         0.035         0.351
  Final Stored Volume ......         0.142         1.415
  Continuity Error (%) .....        -0.023
  
  
  *************************
  Highest Continuity Errors
  *************************
  Node 147 (1.63%)
  
  
  ***************************
  Time-Step Critical Elements
  ***************************
  Link 56 (45.92%)
  Link 47b (45.37%)
  Link 144 (3.96%)
  
  
  ********************************
  Highest Flow Instability Indexes
  ********************************
  Link 148 (18)
  Link 147 (15)
  Link 151 (8)
  Link 53 (7)
  Link 150 (6)
  
  
  *************************
  Routing Time Step Summary
  *************************
  Minimum Time Step           :     0.50 sec
  Average Time Step           :     3.67 sec
  Maximum Time Step           :    30.00 sec
  Percent in Steady State     :     0.00
  Average Iterations per Step :     2.74
  
  
  ***************************
  Subcatchment Runoff Summary
  ***************************
  
  --------------------------------------------------------------------------------------------------------
                            Total      Total      Total      Total      Total       Total     Peak  Runoff
                           Precip      Runon       Evap      Infil     Runoff      Runoff   Runoff   Coeff
  Subcatchment                 mm         mm         mm         mm         mm    10^6 ltr      CMS
  --------------------------------------------------------------------------------------------------------
  ws-1                      37.34       0.00       0.00      12.51      24.82        0.11     0.08   0.665
  ws-2                      37.34       0.00       0.00      15.77      21.59        0.05     0.05   0.578
  ws-3                      37.34       0.00       0.00      13.91      23.27        2.25     1.27   0.623
  ws-7                      37.34       0.00       0.00      15.31      22.04        0.05     0.04   0.590
  ws-8                      37.34       0.00       0.00      11.14      26.18        0.24     0.17   0.701
  ws-9                      37.34       0.00       0.00       9.35      28.04        0.08     0.07   0.751
  ws-10                     37.34       0.00       0.00       3.76      33.65        0.09     0.09   0.901
  ws-11                     37.34       0.00       0.00       4.87      32.45        0.48     0.36   0.869
  ws-12                     37.34       0.00       0.00       5.02      32.35        0.12     0.10   0.867
  ws-13                     37.34       0.00       0.00       7.25      30.04        1.07     0.72   0.805
  ws-14                     37.34       0.00       0.00       4.51      32.88        0.07     0.06   0.881
  ws-15                     37.34       0.00       0.00       5.47      31.91        0.07     0.06   0.855
  ws-16                     37.34       0.00       0.00       4.45      32.93        0.10     0.09   0.882
  ws-17                     37.34       0.00       0.00      13.72      23.04       16.14     5.31   0.617
  ws-18                     37.34       0.00       0.00       3.78      33.66        0.06     0.06   0.901
  ws-19                     37.34       0.00       0.00      13.04      24.21        0.96     0.61   0.649
  ws-20                     37.34       0.00       0.00      12.42      24.76        3.43     1.91   0.663
  ws-21                     37.34       0.00       0.00      19.37      17.94        0.11     0.07   0.480
  ws-22                     37.34       0.00       0.00       9.25      27.87        5.73     2.56   0.746
  ws-23                     37.34       0.00       0.00      15.19      22.09        0.16     0.10   0.592
  ws-24                     37.34       0.00       0.00      11.23      26.14        0.04     0.04   0.700
  ws-25                     37.34       0.00       0.00      12.15      25.10        0.83     0.51   0.672
  ws-26                     37.34       0.00       0.00      10.98      26.20        2.73     1.45   0.702
  ws-27                     37.34       0.00       0.00      17.11      20.21        0.09     0.07   0.541
  ws-28                     37.34       0.00       0.00      15.86      21.45        0.21     0.15   0.575
  ws-29                     37.34       0.00       0.00      20.83      16.45        0.22     0.12   0.440
  ws-30                     37.34       0.00       0.00      17.58      19.68        0.30     0.18   0.527
  ws-31                     37.34       0.00       0.00      26.51      10.78        0.04     0.02   0.289
  ws-32                     37.34       0.00       0.00      24.13      13.02        1.30     0.76   0.349
  ws-35                     37.34       0.00       0.00      32.90       4.35        0.04     0.01   0.117
  ws-37                     37.34       0.00       0.00       8.35      28.95        0.28     0.19   0.775
  ws-38                     37.34       0.00       0.00       9.35      27.97        0.28     0.20   0.749
  ws-40                     37.34       0.00       0.00       4.18      33.18        0.06     0.05   0.889
  ws-41                     37.34       0.00       0.00       3.72      33.58        1.01     0.68   0.899
  ws-42                     37.34       0.00       0.00       6.02      31.29        0.92     0.65   0.838
  ws-43                     37.34       0.00       0.00       8.48      28.85        0.22     0.17   0.773
  ws-45                     37.34       0.00       0.00      11.02      26.16        3.98     2.10   0.701
  ws-46                     37.34       0.00       0.00       5.17      32.01        5.52     2.11   0.857
  ws-47                     37.34       0.00       0.00       6.85      30.48        0.20     0.16   0.816
  ws-48                     37.34       0.00       0.00       4.67      32.70        0.09     0.08   0.876
  ws-49                     37.34       0.00       0.00       7.23      30.09        0.33     0.24   0.806
  ws-50                     37.34       0.00       0.00       4.60      32.72        0.21     0.16   0.876
  ws-52                     37.34       0.00       0.00       7.01      30.29        0.51     0.35   0.811
  ws-53                     37.34       0.00       0.00      10.57      26.66        2.08     1.20   0.714
  ws-54                     37.34       0.00       0.00       5.22      32.11        0.13     0.10   0.860
  ws-55                     37.34       0.00       0.00      13.44      23.77        2.76     1.63   0.637
  ws-57                     37.34       0.00       0.00      27.83       9.42        0.04     0.01   0.252
  ws-58                     37.34       0.00       0.00      18.97      18.25        0.47     0.27   0.489
  ws-60                     37.34       0.00       0.00       7.53      29.81        0.14     0.11   0.798
  ws-61                     37.34       0.00       0.00       7.85      29.48        0.23     0.17   0.789
  ws-62                     37.34       0.00       0.00       8.02      29.34        0.09     0.08   0.786
  ws-63                     37.34       0.00       0.00       6.53      30.76        1.12     0.75   0.824
  ws-64                     37.34       0.00       0.00       9.19      28.02        2.69     1.47   0.750
  ws-65                     37.34       0.00       0.00       7.18      30.14        0.33     0.24   0.807
  ws-66                     37.34       0.00       0.00      10.35      26.89        4.05     2.36   0.720
  ws-69                     37.34       0.00       0.00      12.09      25.07        2.81     1.48   0.671
  ws-70                     37.34       0.00       0.00       9.33      27.96        0.41     0.27   0.749
  ws-71                     37.34       0.00       0.00      10.48      26.53       13.30     5.53   0.711
  ws-73                     37.34       0.00       0.00       9.00      28.32        0.20     0.15   0.759
  ws-74                     37.34       0.00       0.00      28.31       8.70        0.24     0.11   0.233
  ws-75                     37.34       0.00       0.00      27.64       9.60        0.06     0.03   0.257
  ws-77                     37.34       0.00       0.00      26.47      10.83        0.02     0.01   0.290
  ws-78                     37.34       0.00       0.00      17.64      19.58        0.53     0.31   0.525
  ws-79                     37.34       0.00       0.00      18.16      19.12        0.18     0.11   0.512
  ws-80                     37.34       0.00       0.00      13.71      23.66        0.01     0.01   0.634
  ws-81                     37.34       0.00       0.00      15.58      21.64        0.31     0.18   0.580
  ws-83                     37.34       0.00       0.00      12.56      24.67        0.36     0.21   0.661
  ws-84                     37.34       0.00       0.00      18.88      17.71       23.68     9.84   0.474
  ws-87                     37.34       0.00       0.00       0.52      36.82        0.07     0.06   0.986
  ws-88                     37.34       0.00       0.00       5.43      31.86        1.32     0.86   0.853
  ws-89                     37.34       0.00       0.00       0.48      36.88        0.07     0.06   0.988
  ws-90                     37.34       0.00       0.00       0.50      36.88        0.01     0.01   0.988
  ws-91                     37.34       0.00       0.00       0.35      37.04        0.01     0.01   0.992
  ws-92                     37.34       0.00       0.00       1.63      35.74        0.04     0.04   0.957
  ws-93                     37.34       0.00       0.00       2.01      35.38        0.02     0.02   0.948
  ws-94                     37.34       0.00       0.00       1.99      35.32        0.55     0.38   0.946
  ws-95                     37.34       0.00       0.00       1.99      35.36        0.09     0.08   0.947
  ws-96                     37.34       0.00       0.00       0.69      36.73        0.03     0.02   0.984
  ws-97                     37.34       0.00       0.00       2.81      34.53        0.27     0.22   0.925
  ws-98                     37.34       0.00       0.00       3.73      33.62        0.26     0.21   0.901
  ws-101                    37.34       0.00       0.00       6.68      30.65        0.17     0.13   0.821
  ws-102                    37.34       0.00       0.00       5.99      31.36        0.15     0.12   0.840
  ws-103                    37.34       0.00       0.00       8.36      28.99        0.02     0.02   0.776
  ws-105                    37.34       0.00       0.00       5.91      31.44        0.10     0.09   0.842
  ws-106                    37.34       0.00       0.00       1.51      35.85        0.08     0.07   0.960
  ws-107                    37.34       0.00       0.00       2.06      35.31        0.09     0.08   0.946
  ws-108                    37.34       0.00       0.00       5.25      32.04        1.15     0.76   0.858
  ws-112                    37.34       0.00       0.00       5.86      31.47        0.27     0.21   0.843
  ws-114                    37.34       0.00       0.00       7.28      30.12        0.02     0.01   0.807
  ws-115                    37.34       0.00       0.00       5.51      31.88        0.02     0.02   0.854
  ws-116                    37.34       0.00       0.00       8.66      28.55        6.55     3.44   0.765
  ws-118                    37.34       0.00       0.00      10.98      26.41        0.01     0.01   0.707
  ws-119                    37.34       0.00       0.00       4.84      32.49        0.25     0.19   0.870
  ws-120                    37.34       0.00       0.00       6.16      31.21        0.06     0.05   0.836
  ws-121                    37.34       0.00       0.00       5.32      32.07        0.08     0.07   0.859
  ws-122                    37.34       0.00       0.00       5.45      31.88        0.34     0.26   0.854
  ws-123                    37.34       0.00       0.00       6.02      31.22        9.21     4.72   0.836
  ws-124                    37.34       0.00       0.00      12.47      24.85        0.19     0.13   0.666
  ws-127                    37.34       0.00       0.00      23.91      13.41        0.02     0.01   0.359
  ws-128                    37.34       0.00       0.00       5.01      32.07       21.90     6.20   0.859
  ws-130                    37.34       0.00       0.00      12.24      25.11        0.03     0.02   0.672
  ws-131                    37.34       0.00       0.00       6.38      31.04        0.01     0.01   0.831
  ws-132                    37.34       0.00       0.00       8.13      29.07        5.59     2.74   0.779
  ws-136                    37.34       0.00       0.00      15.66      21.49        1.69     0.93   0.576
  ws-137                    37.34       0.00       0.00      13.17      24.17        0.06     0.04   0.647
  ws-138                    37.34       0.00       0.00      24.98      12.29        0.10     0.05   0.329
  ws-139                    37.34       0.00       0.00      24.63      12.70        0.04     0.02   0.340
  ws-141                    37.34       0.00       0.00      25.11      12.20        0.02     0.01   0.327
  ws-142                    37.34       0.00       0.00      24.29      13.04        0.02     0.01   0.349
  ws-143                    37.34       0.00       0.00      22.40      14.90        0.10     0.06   0.399
  ws-144                    37.34       0.00       0.00      10.30      26.96        0.51     0.31   0.722
  ws-145                    37.34       0.00       0.00       5.56      31.83        0.03     0.03   0.853
  ws-146                    37.34       0.00       0.00      16.20      21.13        0.05     0.04   0.566
  ws-148                    37.34       0.00       0.00      11.57      25.36       20.65     8.17   0.679
  ws-149                    37.34       0.00       0.00      28.15       9.13        0.00     0.00   0.244
  ws-150                    37.34       0.00       0.00      15.68      21.05        9.37     3.75   0.564
  ws-154                    37.34       0.00       0.00      12.22      25.08        0.16     0.11   0.672
  ws-155                    37.34       0.00       0.00      14.62      22.71        0.04     0.02   0.608
  ws-156                    37.34       0.00       0.00      10.78      26.53        0.14     0.10   0.711
  ws-157                    37.34       0.00       0.00      15.01      22.24        0.35     0.21   0.596
  ws-159                    37.34       0.00       0.00      13.89      22.88       17.02     6.71   0.613
  ws-161                    37.34       0.00       0.00      15.09      20.98       40.94    10.40   0.562
  ws-162                    37.34       0.00       0.00      15.00      22.24        0.06     0.02   0.596
  ws-163                    37.34       0.00       0.00      20.10      17.18        0.07     0.04   0.460
  ws-165                    37.34       0.00       0.00       9.11      28.20        0.62     0.45   0.755
  ws-166                    37.34       0.00       0.00       2.43      34.90        0.34     0.26   0.935
  ws-167                    37.34       0.00       0.00       5.09      32.30        0.04     0.04   0.865
  ws-168                    37.34       0.00       0.00       6.90      30.40        0.53     0.36   0.814
  ws-169                    37.34       0.00       0.00       3.20      34.18        0.05     0.05   0.915
  ws-170                    37.34       0.00       0.00       5.11      32.22        0.19     0.15   0.863
  ws-171                    37.34       0.00       0.00       8.61      28.64        3.28     1.87   0.767
  ws-172                    37.34       0.00       0.00       9.27      28.02        0.43     0.27   0.750
  ws-173                    37.34       0.00       0.00       7.33      29.82        6.57     2.79   0.799
  ws-174                    37.34       0.00       0.00       3.37      33.99        0.03     0.03   0.910
  
  
  ******************
  Node Depth Summary
  ******************
  
  ---------------------------------------------------------------------
                                 Average  Maximum  Maximum  Time of Max
                                   Depth    Depth      HGL   Occurrence
  Node                 Type       Meters   Meters   Meters  days hr:min
  ---------------------------------------------------------------------
  1                    JUNCTION     0.32     1.24    35.94     0  00:52
  2                    JUNCTION     0.55     1.94    36.95     0  00:54
  3                    JUNCTION     0.58     2.02    37.35     0  00:53
  4                    JUNCTION     0.59     2.07    37.72     0  00:53
  5                    JUNCTION     0.59     2.10    38.06     0  00:53
  6                    JUNCTION     0.60     2.11    38.39     0  00:54
  7                    JUNCTION     0.60     2.12    38.71     0  00:52
  8                    JUNCTION     0.60     2.13    39.03     0  00:53
  9                    JUNCTION     0.60     2.13    39.35     0  00:51
  10                   JUNCTION     0.60     2.13    39.67     0  00:53
  11                   JUNCTION     0.61     2.50    40.35     0  00:53
  12                   JUNCTION     0.61     2.51    40.67     0  00:53
  13                   JUNCTION     0.61     2.62    41.10     0  00:51
  14                   JUNCTION     0.61     2.61    41.41     0  00:51
  15                   JUNCTION     0.61     2.60    41.71     0  00:51
  16                   JUNCTION     0.61     2.59    42.02     0  00:51
  17                   JUNCTION     0.61     2.83    42.57     0  00:50
  18                   JUNCTION     0.59     2.67    42.73     0  00:50
  19                   JUNCTION     0.58     2.53    42.91     0  00:50
  20                   JUNCTION     0.58     2.47    43.16     0  00:50
  21                   JUNCTION     0.57     2.39    43.42     0  00:50
  22                   JUNCTION     0.56     2.13    43.49     0  00:50
  23                   JUNCTION     0.55     2.11    43.81     0  00:53
  24                   JUNCTION     0.55     2.10    44.12     0  00:53
  25                   JUNCTION     0.55     2.09    44.23     0  00:53
  26                   JUNCTION     0.55     2.09    44.41     0  00:53
  27                   JUNCTION     0.54     2.07    44.72     0  00:54
  28                   JUNCTION     0.54     2.06    45.03     0  00:54
  29                   JUNCTION     0.54     2.06    45.47     0  00:54
  30                   JUNCTION     0.54     2.05    45.82     0  00:53
  31                   JUNCTION     0.54     2.05    46.14     0  00:53
  32                   JUNCTION     0.54     2.05    46.45     0  00:53
  33                   JUNCTION     0.54     2.04    46.77     0  00:53
  34                   JUNCTION     0.54     2.04    47.08     0  00:53
  35                   JUNCTION     0.54     2.04    47.42     0  00:53
  36                   JUNCTION     0.47     1.88    47.58     0  00:52
  37                   JUNCTION     0.45     1.77    47.83     0  00:52
  38                   JUNCTION     0.45     1.72    48.11     0  00:52
  39                   JUNCTION     0.45     1.87    48.32     0  00:52
  40                   JUNCTION     0.51     1.65    48.59     0  00:48
  41                   JUNCTION     0.37     1.21    49.73     0  00:46
  42                   JUNCTION     0.47     1.76    50.47     0  00:46
  43                   JUNCTION     0.38     1.17    50.96     0  00:47
  44                   JUNCTION     0.32     0.99    51.86     0  00:46
  45                   JUNCTION     0.66     2.28    53.18     0  00:46
  46                   JUNCTION     0.77     2.36    53.26     0  00:46
  47                   JUNCTION     0.54     1.91    53.24     0  00:46
  48                   JUNCTION     0.58     2.82    55.11     0  00:50
  49                   JUNCTION     0.69     2.82    55.17     0  00:49
  50                   JUNCTION     0.69     2.82    55.25     0  00:50
  51                   JUNCTION     0.28     0.95    55.14     0  00:49
  52                   JUNCTION     0.46     2.21    56.51     0  00:49
  53                   JUNCTION     0.54     1.98    56.56     0  00:49
  54                   JUNCTION     0.33     1.75    56.61     0  00:49
  55                   JUNCTION     0.24     1.49    56.72     0  00:48
  56a                  JUNCTION     0.36     1.53    57.04     0  00:48
  57                   JUNCTION     0.31     1.63    57.71     0  00:48
  58                   JUNCTION     0.51     1.88    57.96     0  00:48
  59                   JUNCTION     0.66     2.17    58.26     0  00:47
  60                   JUNCTION     0.89     2.47    58.55     0  00:44
  61                   JUNCTION     0.94     2.57    58.65     0  00:44
  62                   JUNCTION     0.16     1.05    58.96     0  00:47
  63                   JUNCTION     0.32     1.83    59.74     0  00:46
  64                   JUNCTION     0.23     1.50    59.65     0  00:43
  65                   JUNCTION     0.38     1.97    60.40     0  00:43
  66                   JUNCTION     0.50     1.96    60.48     0  00:44
  67                   JUNCTION     0.62     2.09    60.62     0  00:44
  68                   JUNCTION     0.30     1.18    60.70     0  00:44
  69                   JUNCTION     0.62     1.86    61.36     0  00:43
  70                   JUNCTION     0.70     1.93    61.75     0  00:43
  71                   JUNCTION     0.57     1.91    61.95     0  00:42
  72                   JUNCTION     0.71     2.03    62.07     0  00:42
  73                   JUNCTION     0.87     2.21    62.26     0  00:43
  74                   JUNCTION     0.90     2.28    62.32     0  00:43
  75                   JUNCTION     0.45     1.67    62.33     0  00:43
  76                   JUNCTION     0.40     1.55    62.51     0  00:42
  77                   JUNCTION     0.20     0.94    62.51     0  00:42
  78                   JUNCTION     0.57     1.51    63.08     0  00:41
  79                   JUNCTION     0.30     1.05    63.23     0  00:40
  80                   JUNCTION     0.21     0.93    63.54     0  00:34
  81                   JUNCTION     0.25     1.02    63.85     0  00:40
  82                   JUNCTION     0.25     1.02    64.06     0  00:40
  83                   JUNCTION     0.25     1.02    64.27     0  00:40
  84                   JUNCTION     0.25     1.02    64.48     0  00:40
  85                   JUNCTION     0.22     0.88    64.55     0  00:40
  86                   JUNCTION     0.21     0.82    64.70     0  00:40
  87                   JUNCTION     0.21     0.78    64.87     0  00:39
  88                   JUNCTION     0.21     0.75    65.05     0  00:39
  89                   JUNCTION     0.21     0.73    65.24     0  00:40
  90                   JUNCTION     0.21     0.72    65.50     0  00:40
  91                   JUNCTION     0.22     0.79    65.78     0  00:40
  92                   JUNCTION     0.22     0.79    66.00     0  00:40
  93                   JUNCTION     0.22     0.79    66.21     0  00:39
  94                   JUNCTION     0.22     0.79    66.42     0  00:40
  95                   JUNCTION     0.22     0.78    66.62     0  00:40
  96                   JUNCTION     0.22     0.77    66.82     0  00:39
  97                   JUNCTION     0.22     0.78    67.04     0  00:40
  98                   JUNCTION     0.29     0.95    67.24     0  00:40
  99                   JUNCTION     0.31     1.02    67.34     0  00:40
  100                  JUNCTION     0.33     1.09    67.43     0  00:41
  101                  JUNCTION     0.34     1.14    67.51     0  00:40
  102                  JUNCTION     0.32     1.14    67.58     0  00:40
  103                  JUNCTION     0.32     1.14    67.64     0  00:40
  104                  JUNCTION     0.31     1.14    67.70     0  00:40
  105                  JUNCTION     0.31     1.14    67.75     0  00:40
  106                  JUNCTION     0.31     1.13    67.81     0  00:40
  107                  JUNCTION     0.31     1.13    67.87     0  00:40
  108                  JUNCTION     0.31     1.12    67.92     0  00:40
  109                  JUNCTION     0.31     1.11    67.97     0  00:40
  110                  JUNCTION     0.30     1.10    68.02     0  00:40
  111                  JUNCTION     0.30     1.09    68.06     0  00:39
  112                  JUNCTION     0.30     1.08    68.13     0  00:39
  113                  JUNCTION     0.22     0.91    68.56     0  00:39
  114                  JUNCTION     0.22     0.86    69.20     0  00:39
  115                  JUNCTION     0.22     0.84    69.79     0  00:39
  116                  JUNCTION     0.22     0.84    70.65     0  00:39
  117                  JUNCTION     0.45     1.66    72.08     0  00:38
  118                  JUNCTION     0.56     2.42    73.44     0  00:38
  119                  JUNCTION     0.31     1.79    73.40     0  00:34
  120                  JUNCTION     0.21     1.21    73.42     0  00:33
  121                  JUNCTION     0.14     0.89    73.72     0  00:39
  122                  JUNCTION     0.11     0.74    74.19     0  00:39
  123                  JUNCTION     0.11     0.72    74.86     0  00:39
  124                  JUNCTION     0.23     1.23    73.75     0  00:38
  125                  JUNCTION     0.29     1.23    74.06     0  00:39
  126                  JUNCTION     0.28     1.22    74.35     0  00:39
  127                  JUNCTION     0.28     1.27    74.70     0  00:39
  128                  JUNCTION     0.28     1.29    75.04     0  00:39
  129                  JUNCTION     0.11     0.97    75.08     0  00:40
  130                  JUNCTION     0.03     0.52    75.12     0  00:40
  131                  JUNCTION     0.00     0.01    75.12     0  00:40
  132                  JUNCTION     0.20     0.69    65.62     0  00:39
  133                  JUNCTION     0.18     0.53    65.62     0  00:39
  134                  JUNCTION     0.17     0.43    65.67     0  00:39
  135                  JUNCTION     0.17     0.40    65.79     0  00:39
  136                  JUNCTION     0.17     0.39    65.93     0  00:39
  137                  JUNCTION     0.24     0.44    66.00     0  00:39
  138                  JUNCTION     0.43     0.70    66.27     0  00:39
  139                  JUNCTION     0.49     0.79    66.38     0  00:39
  140                  JUNCTION     0.53     0.85    66.45     0  00:39
  141                  JUNCTION     0.56     0.90    66.52     0  00:39
  142                  JUNCTION     0.59     0.94    66.58     0  00:39
  143                  JUNCTION     0.61     0.97    66.63     0  00:39
  144                  JUNCTION     0.62     0.99    66.67     0  00:39
  145                  JUNCTION     0.63     1.00    66.69     0  00:39
  146                  JUNCTION     0.65     1.00    66.70     0  00:39
  147                  JUNCTION     0.66     1.04    66.76     0  00:30
  148                  JUNCTION     0.92     1.78    67.52     0  00:26
  149                  JUNCTION     1.04     2.23    67.99     0  00:26
  150                  JUNCTION     0.64     2.22    68.60     0  00:38
  151                  JUNCTION     0.53     1.90    68.71     0  00:26
  152                  JUNCTION     0.47     1.74    69.16     0  00:38
  153                  JUNCTION     0.43     1.62    69.64     0  00:38
  154                  JUNCTION     0.40     1.50    70.11     0  00:38
  155                  JUNCTION     0.36     1.23    70.44     0  00:38
  156                  JUNCTION     0.32     0.92    70.74     0  00:26
  157                  JUNCTION     0.28     0.66    71.08     0  00:24
  158                  JUNCTION     0.25     0.50    71.52     0  00:24
  159                  JUNCTION     0.25     0.50    72.01     0  00:23
  160                  JUNCTION     0.44     1.90    47.44     0  00:53
  161                  JUNCTION     0.40     1.81    47.46     0  00:53
  162                  JUNCTION     0.32     1.72    47.46     0  00:52
  163                  JUNCTION     0.28     1.63    47.46     0  00:53
  164                  JUNCTION     0.24     1.54    47.46     0  00:52
  165                  JUNCTION     0.22     1.45    47.46     0  00:53
  166                  JUNCTION     0.19     1.36    47.46     0  00:52
  167                  JUNCTION     0.15     1.18    47.46     0  00:52
  168                  JUNCTION     0.14     1.09    47.46     0  00:51
  169                  JUNCTION     0.12     1.00    47.46     0  00:51
  170                  JUNCTION     0.11     0.91    47.46     0  00:52
  171                  JUNCTION     0.09     0.75    47.46     0  00:51
  172                  JUNCTION     0.25     1.30    48.59     0  00:50
  173                  JUNCTION     0.08     0.58    48.59     0  00:47
  174                  JUNCTION     0.00     0.01    49.37     0  00:37
  47a                  JUNCTION     0.31     1.60    53.81     0  00:46
  47b                  JUNCTION     0.48     2.23    54.47     0  00:45
  56b                  JUNCTION     0.51     2.21    57.71     0  00:45
  0                    OUTFALL      2.00     2.00    34.39     0  00:00
  
  
  *******************
  Node Inflow Summary
  *******************
  
  -------------------------------------------------------------------------------------
                                  Maximum  Maximum                  Lateral       Total
                                  Lateral    Total  Time of Max      Inflow      Inflow
                                   Inflow   Inflow   Occurrence      Volume      Volume
  Node                 Type           CMS      CMS  days hr:min    10^6 ltr    10^6 ltr
  -------------------------------------------------------------------------------------
  1                    JUNCTION     0.079   55.410     0  00:55       0.112     215.104
  2                    JUNCTION     0.045   49.287     0  00:56       0.054     215.031
  3                    JUNCTION     1.272   48.554     0  00:56       2.254     214.992
  4                    JUNCTION     0.000   47.810     0  00:56       0.000     212.754
  5                    JUNCTION     0.000   47.692     0  00:57       0.000     212.767
  6                    JUNCTION     0.000   47.677     0  00:51       0.000     212.781
  7                    JUNCTION     0.040   47.657     0  00:51       0.053     212.795
  8                    JUNCTION     0.168   47.667     0  00:51       0.239     212.757
  9                    JUNCTION     0.072   47.618     0  00:50       0.082     212.533
  10                   JUNCTION     0.087   47.913     0  00:54       0.095     212.460
  11                   JUNCTION     0.360   47.802     0  00:50       0.484     212.386
  12                   JUNCTION     0.103   47.873     0  00:50       0.117     211.909
  13                   JUNCTION     0.724   47.790     0  00:50       1.068     211.794
  14                   JUNCTION     0.063   47.499     0  00:50       0.069     210.729
  15                   JUNCTION     0.060   47.571     0  00:50       0.067     210.662
  16                   JUNCTION     0.089   47.752     0  00:49       0.099     210.596
  17                   JUNCTION     5.315   48.072     0  00:50      16.148     210.502
  18                   JUNCTION     0.055   44.329     0  01:01       0.057     194.361
  19                   JUNCTION     0.608   45.005     0  00:50       0.960     194.308
  20                   JUNCTION     1.907   45.408     0  00:50       3.429     193.354
  21                   JUNCTION     0.074   44.959     0  00:50       0.108     189.941
  22                   JUNCTION     2.556   47.546     0  00:53       5.736     192.462
  23                   JUNCTION     0.101   45.964     0  00:54       0.159     186.742
  24                   JUNCTION     0.037   45.924     0  00:54       0.045     186.593
  25                   JUNCTION     0.513   45.914     0  00:54       0.827     186.555
  26                   JUNCTION     1.454   45.699     0  00:54       2.732     185.740
  27                   JUNCTION     0.066   45.001     0  00:54       0.095     183.023
  28                   JUNCTION     0.146   44.971     0  00:54       0.215     182.944
  29                   JUNCTION     0.123   44.913     0  00:54       0.222     182.746
  30                   JUNCTION     0.184   44.853     0  00:53       0.300     182.538
  31                   JUNCTION     0.021   44.774     0  00:53       0.038     182.253
  32                   JUNCTION     0.761   44.771     0  00:53       1.299     182.228
  33                   JUNCTION     0.000   44.476     0  00:53       0.000     180.944
  34                   JUNCTION     0.000   44.479     0  00:53       0.000     180.958
  35                   JUNCTION     0.013   44.489     0  00:52       0.039     180.979
  36                   JUNCTION     0.000   33.488     0  00:49       0.000     134.854
  37                   JUNCTION     0.192   33.558     0  00:49       0.278     134.865
  38                   JUNCTION     0.198   33.496     0  00:48       0.277     134.593
  39                   JUNCTION     0.000   33.460     0  00:48       0.000     134.322
  40                   JUNCTION     0.054   33.512     0  00:48       0.063     134.347
  41                   JUNCTION     0.678   31.316     0  00:46       1.012     127.265
  42                   JUNCTION     0.648   30.855     0  00:46       0.921     126.262
  43                   JUNCTION     0.166   30.570     0  00:46       0.217     125.352
  44                   JUNCTION     0.000   30.499     0  00:46       0.000     125.141
  45                   JUNCTION     2.103   30.511     0  00:46       3.979     125.145
  46                   JUNCTION     2.111   29.366     0  00:45       5.526     121.182
  47                   JUNCTION     0.158   27.745     0  01:00       0.202     115.666
  48                   JUNCTION     0.078   34.135     0  00:49       0.089     119.035
  49                   JUNCTION     0.244   34.762     0  00:49       0.335     118.964
  50                   JUNCTION     0.158   34.880     0  00:49       0.207     118.644
  51                   JUNCTION     0.000   34.865     0  00:49       0.000     118.439
  52                   JUNCTION     0.350   35.989     0  00:49       0.507     118.443
  53                   JUNCTION     1.202   35.884     0  00:49       2.081     117.942
  54                   JUNCTION     0.103   35.883     0  00:48       0.132     115.869
  55                   JUNCTION     1.626   36.718     0  00:48       2.760     115.744
  56a                  JUNCTION     0.000   34.789     0  00:45       0.000     112.989
  57                   JUNCTION     0.014   40.425     0  00:48       0.036     112.991
  58                   JUNCTION     0.272   39.185     0  00:48       0.468     112.982
  59                   JUNCTION     0.000   40.302     0  00:44       0.000     112.532
  60                   JUNCTION     0.107   43.163     0  00:44       0.137     112.549
  61                   JUNCTION     0.170   43.622     0  00:44       0.230     112.205
  62                   JUNCTION     0.078   54.640     0  00:46       0.094     112.042
  63                   JUNCTION     0.747   39.187     0  00:43       1.124     111.956
  64                   JUNCTION     1.470   32.899     0  00:45       2.695     110.836
  65                   JUNCTION     0.242   32.598     0  00:44       0.332     108.145
  66                   JUNCTION     2.359   32.228     0  00:44       4.053     107.843
  67                   JUNCTION     0.000   29.853     0  00:43       0.000     103.812
  68                   JUNCTION     0.000   29.855     0  00:43       0.000     103.811
  69                   JUNCTION     1.478   29.851     0  00:43       2.809     103.821
  70                   JUNCTION     0.272   28.917     0  00:42       0.412     101.036
  71                   JUNCTION     5.526   28.812     0  00:42      13.307     100.701
  72                   JUNCTION     0.000   24.351     0  00:42       0.000      87.437
  73                   JUNCTION     0.152   24.456     0  00:42       0.199      87.388
  74                   JUNCTION     0.110   24.572     0  00:41       0.236      87.206
  75                   JUNCTION     0.026   24.768     0  00:41       0.064      86.972
  76                   JUNCTION     0.000   25.446     0  00:41       0.000      86.920
  77                   JUNCTION     0.012   25.697     0  00:40       0.025      86.929
  78                   JUNCTION     0.308   25.855     0  00:40       0.531      86.926
  79                   JUNCTION     0.112   25.613     0  00:40       0.180      86.397
  80                   JUNCTION     0.012   25.493     0  00:40       0.014      86.219
  81                   JUNCTION     0.177   25.501     0  00:40       0.308      86.205
  82                   JUNCTION     0.000   25.315     0  00:40       0.000      85.900
  83                   JUNCTION     0.212   25.285     0  00:40       0.358      85.903
  84                   JUNCTION     9.838   25.097     0  00:40      23.689      85.549
  85                   JUNCTION     0.000   15.537     0  00:41       0.000      61.872
  86                   JUNCTION     0.000   15.528     0  00:41       0.000      61.873
  87                   JUNCTION     0.059   15.493     0  00:40       0.074      61.874
  88                   JUNCTION     0.855   15.428     0  00:40       1.323      61.802
  89                   JUNCTION     0.063   14.683     0  00:40       0.074      60.482
  90                   JUNCTION     0.010   14.614     0  00:40       0.011      60.410
  91                   JUNCTION     0.013    9.853     0  00:40       0.015      34.304
  92                   JUNCTION     0.037    9.823     0  00:40       0.043      34.290
  93                   JUNCTION     0.019    9.785     0  00:40       0.021      34.247
  94                   JUNCTION     0.382    9.744     0  00:40       0.552      34.226
  95                   JUNCTION     0.075    9.407     0  00:41       0.089      33.676
  96                   JUNCTION     0.024    9.421     0  00:41       0.026      33.586
  97                   JUNCTION     0.223    9.926     0  00:40       0.273      33.569
  98                   JUNCTION     0.214    9.205     0  00:41       0.256      33.293
  99                   JUNCTION     0.000    9.063     0  00:41       0.000      33.038
  100                  JUNCTION     0.000    9.052     0  00:41       0.000      33.037
  101                  JUNCTION     0.131    9.063     0  00:40       0.166      33.037
  102                  JUNCTION     0.124    8.969     0  00:40       0.151      32.872
  103                  JUNCTION     0.016    8.893     0  00:40       0.020      32.723
  104                  JUNCTION     0.000    8.862     0  00:40       0.000      32.703
  105                  JUNCTION     0.085    8.880     0  00:40       0.104      32.703
  106                  JUNCTION     0.067    8.838     0  00:40       0.079      32.600
  107                  JUNCTION     0.076    8.792     0  00:40       0.088      32.521
  108                  JUNCTION     0.762    8.740     0  00:40       1.151      32.435
  109                  JUNCTION     0.000    8.035     0  00:40       0.000      31.286
  110                  JUNCTION     0.000    8.035     0  00:39       0.000      31.284
  111                  JUNCTION     0.000    8.045     0  00:39       0.000      31.285
  112                  JUNCTION     0.208    8.055     0  00:39       0.268      31.286
  113                  JUNCTION     0.000    7.877     0  00:39       0.000      31.019
  114                  JUNCTION     0.014    7.878     0  00:39       0.015      31.019
  115                  JUNCTION     0.017    7.869     0  00:39       0.019      31.005
  116                  JUNCTION     3.435    7.856     0  00:39       6.553      30.986
  117                  JUNCTION     0.000    4.455     0  00:57       0.000      24.438
  118                  JUNCTION     0.009    5.463     0  00:39       0.011      25.730
  119                  JUNCTION     0.189    2.667     0  00:32       0.247       7.897
  120                  JUNCTION     0.054    5.063     0  00:39       0.063       9.694
  121                  JUNCTION     0.075    5.015     0  00:39       0.084       9.632
  122                  JUNCTION     0.258    4.973     0  00:39       0.339       9.549
  123                  JUNCTION     4.723    4.723     0  00:39       9.216       9.211
  124                  JUNCTION     0.134    5.454     0  00:39       0.187      21.713
  125                  JUNCTION     0.000    5.336     0  00:39       0.000      21.527
  126                  JUNCTION     0.000    5.336     0  00:39       0.000      21.527
  127                  JUNCTION     0.009    5.345     0  00:39       0.016      21.532
  128                  JUNCTION     6.202    6.581     0  00:41      21.908      22.184
  129                  JUNCTION     0.000    0.874     0  00:39       0.000       0.397
  130                  JUNCTION     0.020    0.566     0  00:39       0.025       0.148
  131                  JUNCTION     0.006    0.012     0  00:40       0.006       0.006
  132                  JUNCTION     2.739    4.888     0  00:39       5.590      26.096
  133                  JUNCTION     0.000    2.175     0  00:39       0.000      20.511
  134                  JUNCTION     0.000    2.185     0  00:39       0.000      20.512
  135                  JUNCTION     0.000    2.185     0  00:39       0.000      20.514
  136                  JUNCTION     0.927    2.191     0  00:39       1.689      20.519
  137                  JUNCTION     0.042    1.269     0  00:39       0.056      18.836
  138                  JUNCTION     0.051    1.229     0  00:39       0.101      18.784
  139                  JUNCTION     0.023    1.183     0  00:39       0.036      18.688
  140                  JUNCTION     0.000    1.163     0  00:39       0.000      18.656
  141                  JUNCTION     0.011    1.179     0  00:28       0.020      18.660
  142                  JUNCTION     0.013    1.283     0  00:27       0.020      18.646
  143                  JUNCTION     0.056    1.429     0  00:26       0.103      18.631
  144                  JUNCTION     0.312    1.632     0  00:26       0.510      18.534
  145                  JUNCTION     0.029    1.763     0  00:26       0.032      18.030
  146                  JUNCTION     0.038    2.018     0  00:25       0.055      18.002
  147                  JUNCTION     0.000    2.569     0  00:26       0.000      18.245
  148                  JUNCTION     8.167    8.871     0  00:39      20.657      32.004
  149                  JUNCTION     0.001    4.376     0  00:39       0.003      17.718
  150                  JUNCTION     3.750    4.375     0  00:39       9.375      17.709
  151                  JUNCTION     0.000    0.883     0  00:26       0.000       8.338
  152                  JUNCTION     0.000    0.726     0  00:25       0.000       8.337
  153                  JUNCTION     0.000    0.752     0  00:24       0.000       8.337
  154                  JUNCTION     0.106    0.752     0  00:24       0.161       8.338
  155                  JUNCTION     0.025    0.757     0  00:24       0.036       8.178
  156                  JUNCTION     0.096    0.765     0  00:24       0.138       8.188
  157                  JUNCTION     0.211    0.814     0  00:39       0.350       8.438
  158                  JUNCTION     0.000    0.703     0  00:24       0.000       8.486
  159                  JUNCTION     6.707    6.707     0  00:39      17.025      17.018
  160                  JUNCTION     0.000   11.096     0  00:53       0.000      46.104
  161                  JUNCTION    10.401   11.179     0  00:40      40.949      46.502
  162                  JUNCTION     0.024    2.116     0  01:11       0.056       5.836
  163                  JUNCTION     0.037    1.941     0  01:11       0.069       5.587
  164                  JUNCTION     0.000    1.802     0  00:38       0.000       5.375
  165                  JUNCTION     0.446    2.069     0  00:38       0.621       5.291
  166                  JUNCTION     0.263    2.012     0  00:38       0.336       4.591
  167                  JUNCTION     0.035    2.061     0  00:39       0.039       4.145
  168                  JUNCTION     0.362    2.187     0  00:39       0.530       4.055
  169                  JUNCTION     0.046    1.951     0  00:39       0.051       3.523
  170                  JUNCTION     0.146    1.991     0  00:39       0.190       3.472
  171                  JUNCTION     1.868    1.868     0  00:39       3.284       3.282
  172                  JUNCTION     0.275    3.049     0  00:39       0.432       7.030
  173                  JUNCTION     2.786    2.811     0  00:39       6.572       6.599
  174                  JUNCTION     0.027    0.027     0  00:37       0.031       0.031
  47a                  JUNCTION     0.000   27.722     0  01:00       0.000     115.455
  47b                  JUNCTION     0.000   33.984     0  00:50       0.000     119.032
  56b                  JUNCTION     0.000   35.472     0  00:44       0.000     112.990
  0                    OUTFALL      0.000   50.846     0  01:06       0.000     215.112
  
  
  **********************
  Node Surcharge Summary
  **********************
  
  Surcharging occurs when water rises above the top of the highest conduit.
  ---------------------------------------------------------------------
                                               Max. Height   Min. Depth
                                   Hours       Above Crown    Below Rim
  Node                 Type      Surcharged         Meters       Meters
  ---------------------------------------------------------------------
  9                    JUNCTION        0.01          0.000        1.004
  10                   JUNCTION        0.24          0.003        0.683
  11                   JUNCTION        0.26          0.372        0.000
  12                   JUNCTION        0.26          0.379        2.753
  13                   JUNCTION        0.26          0.492        2.327
  14                   JUNCTION        0.26          0.483        2.019
  15                   JUNCTION        0.26          0.472        1.716
  16                   JUNCTION        0.26          0.462        1.406
  17                   JUNCTION        0.26          0.698        0.856
  18                   JUNCTION        0.24          0.543        0.693
  19                   JUNCTION        0.23          0.401        0.515
  20                   JUNCTION        0.22          0.340        0.259
  21                   JUNCTION        0.20          0.256        0.000
  22                   JUNCTION        0.18          0.000        0.000
  117                  JUNCTION        0.76          0.663        2.267
  118                  JUNCTION        0.80          1.424        1.139
  119                  JUNCTION        0.73          0.793        0.000
  120                  JUNCTION        0.65          0.215        0.000
  124                  JUNCTION        0.54          0.228        1.759
  125                  JUNCTION        0.42          0.230        0.680
  126                  JUNCTION        0.40          0.224        0.000
  127                  JUNCTION        0.38          0.273        0.000
  128                  JUNCTION        0.36          0.285        0.000
  146                  JUNCTION        0.01          0.000        0.276
  147                  JUNCTION        1.91          0.042        0.397
  148                  JUNCTION        2.15          0.781        0.000
  149                  JUNCTION        2.15          1.234        0.000
  150                  JUNCTION        1.79          1.218        1.012
  151                  JUNCTION        1.43          0.897        1.603
  152                  JUNCTION        1.47          1.244        0.889
  153                  JUNCTION        1.43          1.120        0.545
  154                  JUNCTION        1.34          0.996        0.296
  155                  JUNCTION        1.30          0.727        0.384
  156                  JUNCTION        1.27          0.416        0.000
  157                  JUNCTION        1.25          0.157        0.000
  158                  JUNCTION        1.21          0.000        0.000
  159                  JUNCTION        1.15          0.000        0.000
  47b                  JUNCTION        0.39          0.399        0.000
  56b                  JUNCTION        0.07          0.225        0.152
  
  
  *********************
  Node Flooding Summary
  *********************
  
  Flooding refers to all water that overflows a node, whether it ponds or not.
  --------------------------------------------------------------------------
                                                             Total   Maximum
                                 Maximum   Time of Max       Flood    Ponded
                        Hours       Rate    Occurrence      Volume     Depth
  Node                 Flooded       CMS   days hr:min    10^6 ltr    Meters
  --------------------------------------------------------------------------
  11                      0.01     0.082      0  00:53       0.001      2.50
  21                      0.01     2.419      0  00:50       0.005      2.39
  22                      0.18     6.163      0  00:53       2.615      2.13
  119                     0.58     2.596      0  00:39       3.892      1.79
  120                     0.52     3.684      0  00:39       3.337      1.21
  126                     0.01     0.024      0  00:39       0.000      1.22
  127                     0.27     0.008      0  00:39       0.005      1.27
  128                     0.25     1.245      0  00:41       0.419      1.29
  148                     1.67     8.167      0  00:39      13.885      1.78
  149                     1.39     3.672      0  00:39       6.345      2.23
  156                     0.33     0.129      0  00:39       0.046      0.92
  157                     0.79     0.284      0  00:39       0.387      0.66
  158                     1.21     0.099      0  00:39       0.397      0.50
  159                     1.15     6.005      0  00:39       8.532      0.50
  47b                     0.23     6.549      0  00:50       3.571      2.23
  
  
  ***********************
  Outfall Loading Summary
  ***********************
  
  -----------------------------------------------------------
                        Flow       Avg.      Max.       Total
                        Freq.      Flow      Flow      Volume
  Outfall Node          Pcnt.       CMS       CMS    10^6 ltr
  -----------------------------------------------------------
  0                     99.83     9.669    50.846     215.112
  -----------------------------------------------------------
  System                99.83     9.669    50.846     215.112
  
  
  ********************
  Link Flow Summary
  ********************
  
  -----------------------------------------------------------------------------
                                 Maximum  Time of Max   Maximum    Max/    Max/
                                  |Flow|   Occurrence   |Veloc|    Full    Full
  Link                 Type          CMS  days hr:min     m/sec    Flow   Depth
  -----------------------------------------------------------------------------
  1                    CONDUIT    50.846     0  01:06      4.61    0.39    0.76
  2                    CONDUIT    55.381     0  00:55      5.22    1.17    0.72
  3                    CONDUIT    49.276     0  00:56      3.73    1.04    0.93
  4                    CONDUIT    48.053     0  00:56      3.43    1.01    0.96
  5                    CONDUIT    47.810     0  00:56      3.30    1.01    0.98
  6                    CONDUIT    47.692     0  00:57      3.25    1.01    0.99
  7                    CONDUIT    47.677     0  00:51      3.22    1.00    0.99
  8                    CONDUIT    47.639     0  00:51      3.20    1.00    1.00
  9                    CONDUIT    47.586     0  00:51      3.20    1.00    1.00
  10                   CONDUIT    47.590     0  00:50      3.19    1.00    1.00
  11                   CONDUIT    47.898     0  00:54      3.21    1.01    1.00
  12                   CONDUIT    47.651     0  00:50      3.20    1.00    1.00
  13                   CONDUIT    47.838     0  00:50      3.21    1.01    1.00
  14                   CONDUIT    47.448     0  00:50      3.18    1.00    1.00
  15                   CONDUIT    47.479     0  00:50      3.18    1.00    1.00
  16                   CONDUIT    47.552     0  00:50      3.19    1.00    1.00
  17                   CONDUIT    47.724     0  00:49      3.20    1.01    1.00
  18                   CONDUIT    44.345     0  01:02      2.97    0.93    1.00
  19                   CONDUIT    44.328     0  01:01      3.02    0.93    1.00
  20                   CONDUIT    44.712     0  00:50      3.06    0.94    1.00
  21                   CONDUIT    44.343     0  00:50      3.05    0.93    1.00
  22                   CONDUIT    44.924     0  00:50      3.09    0.95    1.00
  23                   CONDUIT    45.969     0  00:53      3.10    0.97    1.00
  24                   CONDUIT    45.924     0  00:54      3.12    0.97    0.99
  25                   CONDUIT    45.914     0  00:54      3.13    0.97    0.98
  26                   CONDUIT    45.703     0  00:54      3.12    0.96    0.98
  27                   CONDUIT    45.008     0  00:54      3.09    0.95    0.98
  28                   CONDUIT    44.977     0  00:54      3.11    0.95    0.97
  29                   CONDUIT    44.917     0  00:54      3.12    0.95    0.97
  30                   CONDUIT    44.851     0  00:54      3.12    0.95    0.96
  31                   CONDUIT    44.775     0  00:53      3.12    0.94    0.96
  32                   CONDUIT    44.765     0  00:53      3.12    0.94    0.96
  33                   CONDUIT    44.475     0  00:53      3.11    0.94    0.96
  34                   CONDUIT    44.476     0  00:53      3.11    0.94    0.96
  35                   CONDUIT    44.479     0  00:53      3.12    0.94    0.96
  36                   CONDUIT    33.432     0  00:52      2.53    0.70    0.92
  37                   CONDUIT    33.488     0  00:49      2.69    0.71    0.86
  38                   CONDUIT    33.468     0  00:49      2.78    0.71    0.82
  39                   CONDUIT    33.404     0  00:48      2.05    0.44    0.84
  40                   CHANNEL    33.460     0  00:48      2.55    0.57    0.82
  41                   CHANNEL    31.318     0  00:46      4.23    0.07    0.33
  42                   CONDUIT    30.947     0  00:46      3.43    0.77    0.61
  43                   CHANNEL    30.548     0  00:47      2.86    0.11    0.44
  44                   CHANNEL    30.499     0  00:46      2.86    0.08    0.32
  45                   CONDUIT    30.499     0  00:46      5.06    0.76    0.52
  46                   CHANNEL    29.244     0  00:47      1.58   10.57    0.85
  47                   CHANNEL    27.763     0  01:00      1.41    0.14    0.70
  47a                  CONDUIT    27.728     0  01:00      3.34    0.31    0.94
  49                   CHANNEL    34.110     0  00:49      1.75    0.58    0.77
  50                   CHANNEL    34.658     0  00:49      1.65    0.90    0.92
  51                   CHANNEL    34.816     0  00:49      2.10    0.14    0.62
  52                   CONDUIT    34.865     0  00:49      5.21    1.21    0.76
  53                   CHANNEL    35.825     0  00:49      3.27    0.50    0.85
  54                   CHANNEL    35.215     0  00:49      2.91    0.49    1.00
  55                   CONDUIT    35.841     0  00:48      2.05    0.32    0.87
  56a                  CHANNEL    35.849     0  00:48      4.27    0.04    0.21
  57                   CHANNEL    35.472     0  00:44      2.10    0.40    0.95
  58                   CHANNEL    40.415     0  00:48      2.89    1.36    0.21
  59                   CHANNEL    39.055     0  00:48      2.74    1.16    0.23
  60                   CHANNEL    40.302     0  00:44      2.76    1.93    0.29
  61                   CHANNEL    43.121     0  00:44      2.20    7.91    0.63
  62                   CHANNEL    43.551     0  00:44      3.87    0.04    0.27
  63                   CHANNEL    54.610     0  00:46      4.93    3.70    0.30
  64                   CHANNEL    38.788     0  00:43      3.43    0.15    0.54
  65                   CONDUIT    31.997     0  00:45      5.12    0.84    0.94
  66                   CHANNEL    32.490     0  00:44      2.29    0.21    0.46
  67                   CHANNEL    30.836     0  00:44      2.18    3.06    0.44
  68                   CHANNEL    29.853     0  00:43      2.32    0.05    0.28
  70                   CHANNEL    28.864     0  00:43      2.65    0.26    0.52
  71                   CHANNEL    28.770     0  00:42      2.09    0.42    0.63
  72                   CHANNEL    24.340     0  00:43      1.43    5.21    0.59
  73                   CHANNEL    24.351     0  00:42      1.69    6.32    0.58
  74                   CHANNEL    24.385     0  00:42      1.23    7.95    0.74
  75                   CHANNEL    24.519     0  00:41      1.53    0.18    0.72
  76                   CHANNEL    24.753     0  00:41      2.11    0.08    0.35
  77                   CHANNEL    25.446     0  00:41      1.59    0.05    0.31
  78                   CHANNEL    25.688     0  00:41      3.84    4.48    0.31
  79                   CHANNEL    25.629     0  00:40      2.08    0.02    0.16
  80                   CONDUIT    14.536     0  00:40      4.22    0.47    0.53
  81                   CONDUIT    14.538     0  00:40      4.28    0.68    0.52
  82                   CONDUIT    14.461     0  00:40      3.97    0.68    0.56
  83                   CONDUIT    14.437     0  00:40      3.97    0.68    0.56
  84                   CONDUIT    14.311     0  00:40      3.95    0.67    0.56
  85                   CONDUIT     8.832     0  00:41      2.69    0.41    0.52
  86                   CONDUIT     8.792     0  00:41      3.01    0.41    0.47
  87                   CONDUIT     8.758     0  00:41      3.20    0.41    0.44
  88                   CONDUIT     8.699     0  00:40      3.32    0.41    0.42
  89                   CONDUIT     8.261     0  00:40      3.27    0.39    0.41
  90                   CONDUIT     8.208     0  00:40      3.33    0.39    0.39
  91                   CONDUIT     9.805     0  00:40      3.85    0.46    0.41
  92                   CONDUIT     9.845     0  00:40      3.61    0.46    0.43
  93                   CONDUIT     9.801     0  00:40      3.60    0.46    0.43
  94                   CONDUIT     9.774     0  00:40      3.59    0.46    0.43
  95                   CONDUIT     9.396     0  00:40      3.50    0.44    0.43
  96                   CONDUIT     9.369     0  00:41      3.52    0.44    0.42
  97                   CONDUIT     9.413     0  00:41      3.55    0.44    0.42
  98                   CONDUIT     9.782     0  00:40      3.27    1.21    0.47
  99                   CONDUIT     9.088     0  00:41      2.66    1.13    0.54
  100                  CONDUIT     9.063     0  00:41      2.45    1.13    0.58
  101                  CONDUIT     9.052     0  00:41      2.30    1.12    0.61
  102                  CONDUIT     8.975     0  00:40      2.21    0.79    0.62
  103                  CONDUIT     8.897     0  00:40      2.19    0.78    0.62
  104                  CONDUIT     8.882     0  00:40      2.19    0.78    0.62
  105                  CONDUIT     8.862     0  00:40      2.19    0.78    0.62
  106                  CONDUIT     8.817     0  00:40      2.18    0.77    0.62
  107                  CONDUIT     8.791     0  00:40      2.17    0.77    0.62
  108                  CONDUIT     8.739     0  00:40      2.16    0.77    0.62
  109                  CONDUIT     8.039     0  00:40      2.01    0.71    0.61
  110                  CONDUIT     8.035     0  00:40      2.02    0.71    0.60
  111                  CONDUIT     8.035     0  00:39      2.04    0.71    0.60
  112                  CONDUIT     8.045     0  00:39      2.07    0.71    0.59
  113                  CONDUIT     7.869     0  00:39      2.75    0.78    0.96
  114                  CONDUIT     7.877     0  00:39      2.97    0.78    0.88
  115                  CONDUIT     7.867     0  00:39      3.09    0.78    0.85
  116                  CONDUIT     7.854     0  00:39      3.11    0.78    0.84
  117                  CONDUIT     4.455     0  00:57      6.51    1.52    0.92
  118                  CONDUIT     4.455     0  00:57      5.67    1.52    1.00
  119                  CONDUIT     2.642     0  00:33      1.00    0.35    1.00
  120                  CONDUIT     2.538     0  00:32      1.66    0.34    1.00
  121                  CONDUIT     5.018     0  00:39      1.79    0.66    0.95
  122                  CONDUIT     4.953     0  00:39      2.02    0.66    0.82
  123                  CONDUIT     4.722     0  00:39      2.15    0.63    0.73
  124                  CONDUIT     5.456     0  00:39      1.82    0.46    1.00
  125                  CONDUIT     5.336     0  00:39      1.89    1.00    1.00
  126                  CONDUIT     5.336     0  00:39      1.78    1.00    1.00
  127                  CONDUIT     5.336     0  00:39      1.78    1.00    1.00
  128                  CONDUIT     5.336     0  00:39      1.78    1.00    1.00
  129                  CONDUIT     0.874     0  00:39      0.33    0.16    0.98
  130                  CONDUIT     0.543     0  00:39      0.33    0.10    0.73
  131                  CONDUIT     0.009     0  00:40      0.08    0.00    0.26
  132                  CONDUIT     4.930     0  00:39      2.71    0.27    0.34
  133                  CONDUIT     2.205     0  00:40      1.58    0.12    0.30
  134                  CONDUIT     2.175     0  00:39      1.78    0.12    0.24
  135                  CONDUIT     2.185     0  00:39      1.92    0.12    0.20
  136                  CONDUIT     2.185     0  00:39      2.02    0.12    0.19
  137                  CONDUIT     1.270     0  00:40      1.31    0.22    0.20
  138                  CONDUIT     1.228     0  00:39      1.08    1.74    0.57
  139                  CONDUIT     1.183     0  00:39      0.85    1.68    0.74
  140                  CONDUIT     1.163     0  00:39      0.91    1.65    0.82
  141                  CONDUIT     1.163     0  00:39      0.99    1.65    0.87
  142                  CONDUIT     1.177     0  00:28      1.01    1.67    0.92
  143                  CONDUIT     1.281     0  00:27      1.02    1.82    0.96
  144                  CONDUIT     1.410     0  00:26      0.97    2.00    0.98
  145                  CONDUIT     1.516     0  00:26      0.96    2.15    1.00
  146                  CONDUIT     1.748     0  00:26      1.03    2.48    1.00
  147                  CONDUIT     1.998     0  00:25      1.07    2.84    1.00
  148                  CONDUIT     2.569     0  00:26      1.28    3.65    1.00
  149                  CONDUIT     0.769     0  00:25      0.39    1.09    1.00
  150                  CONDUIT     4.375     0  00:39      2.19    0.98    1.00
  151                  CONDUIT     0.700     0  00:25      1.44    0.50    1.00
  152                  CONDUIT     0.710     0  00:25      1.50    1.01    1.00
  153                  CONDUIT     0.726     0  00:25      1.54    1.03    1.00
  154                  CONDUIT     0.752     0  00:24      1.57    1.07    1.00
  155                  CONDUIT     0.705     0  00:24      1.44    1.00    1.00
  156                  CONDUIT     0.745     0  00:24      1.53    1.06    1.00
  157                  CONDUIT     0.725     0  00:24      1.47    1.03    1.00
  158                  CONDUIT     0.675     0  00:24      1.38    0.96    1.00
  159                  CONDUIT     0.703     0  00:24      1.43    1.00    1.00
  160                  CONDUIT    11.107     0  00:53      1.28    0.34    0.92
  161                  CONDUIT    11.096     0  00:53      1.40    0.34    0.87
  162                  CONDUIT     2.277     0  01:11      0.27    0.07    0.83
  163                  CONDUIT     2.110     0  01:11      0.27    0.06    0.79
  164                  CONDUIT     1.937     0  01:11      0.39    0.06    0.74
  165                  CONDUIT     1.802     0  00:38      0.61    0.05    0.70
  166                  CONDUIT     1.630     0  00:38      0.57    0.05    0.66
  167                  CONDUIT     1.755     0  00:38      0.66    0.05    0.60
  168                  CONDUIT     2.031     0  00:39      0.79    0.06    0.53
  169                  CONDUIT     1.839     0  00:39      0.73    0.06    0.49
  170                  CONDUIT     1.915     0  00:39      0.79    0.06    0.45
  171                  CONDUIT     1.853     0  00:39      0.79    0.06    0.39
  172                  CONDUIT     2.345     0  00:48      0.48    0.06    0.69
  173                  CONDUIT     2.798     0  00:40      0.92    0.05    0.44
  174                  CONDUIT     0.026     0  00:37      0.04    0.00    0.14
  47b                  CONDUIT    27.722     0  01:00      3.57    0.90    1.00
  48                   CONDUIT    33.984     0  00:50      3.81    1.05    1.00
  56                   CONDUIT    34.789     0  00:45      4.26    9.88    0.89
  80-a                 CONDUIT    11.001     0  00:40      4.22    0.35    0.48
  81-a                 CONDUIT    10.948     0  00:40      4.16    0.50    0.47
  82-a                 CONDUIT    10.895     0  00:40      3.89    0.50    0.50
  83-a                 CONDUIT    10.878     0  00:40      3.89    0.50    0.50
  84-a                 CONDUIT    10.785     0  00:40      3.87    0.49    0.50
  85-a                 CONDUIT     6.760     0  00:41      2.65    0.31    0.47
  86-a                 CONDUIT     6.746     0  00:41      2.93    0.31    0.42
  87-a                 CONDUIT     6.770     0  00:41      3.12    0.31    0.39
  88-a                 CONDUIT     6.756     0  00:40      3.23    0.31    0.37
  89-a                 CONDUIT     6.448     0  00:40      3.19    0.29    0.36
  90-a                 CONDUIT     6.435     0  00:40      3.26    0.29    0.35
  69                   CONDUIT    29.855     0  00:43      3.45    0.54    0.75
  
  
  ***************************
  Flow Classification Summary
  ***************************
  
  -----------------------------------------------------------------------------------------
                      Adjusted    --- Fraction of Time in Flow Class ----   Avg.     Avg.  
                       /Actual         Up    Down  Sub   Sup   Up    Down   Froude   Flow  
  Conduit               Length    Dry  Dry   Dry   Crit  Crit  Crit  Crit   Number   Change
  -----------------------------------------------------------------------------------------
  1                       1.00   0.00  0.00  0.00  0.92  0.08  0.00  0.00     0.28   0.0002
  2                       1.00   0.00  0.00  0.00  0.48  0.52  0.00  0.00     0.98   0.0041
  3                       1.00   0.00  0.00  0.00  1.00  0.00  0.00  0.00     0.66   0.0002
  4                       1.00   0.00  0.00  0.00  1.00  0.00  0.00  0.00     0.65   0.0001
  5                       1.00   0.00  0.00  0.00  1.00  0.00  0.00  0.00     0.65   0.0001
  6                       1.00   0.00  0.00  0.00  1.00  0.00  0.00  0.00     0.65   0.0001
  7                       1.00   0.00  0.00  0.00  1.00  0.00  0.00  0.00     0.65   0.0001
  8                       1.00   0.00  0.00  0.00  1.00  0.00  0.00  0.00     0.64   0.0001
  9                       1.00   0.00  0.00  0.00  1.00  0.00  0.00  0.00     0.64   0.0001
  10                      1.00   0.00  0.00  0.00  1.00  0.00  0.00  0.00     0.64   0.0001
  11                      1.00   0.00  0.00  0.00  1.00  0.00  0.00  0.00     0.64   0.0002
  12                      1.00   0.00  0.00  0.00  1.00  0.00  0.00  0.00     0.64   0.0001
  13                      1.00   0.00  0.00  0.00  1.00  0.00  0.00  0.00     0.64   0.0001
  14                      1.00   0.00  0.00  0.00  1.00  0.00  0.00  0.00     0.64   0.0001
  15                      1.00   0.00  0.00  0.00  1.00  0.00  0.00  0.00     0.64   0.0001
  16                      1.00   0.00  0.00  0.00  1.00  0.00  0.00  0.00     0.64   0.0001
  17                      1.00   0.00  0.00  0.00  1.00  0.00  0.00  0.00     0.64   0.0001
  18                      1.00   0.00  0.00  0.00  1.00  0.00  0.00  0.00     0.62   0.0001
  19                      1.00   0.00  0.00  0.00  1.00  0.00  0.00  0.00     0.64   0.0001
  20                      1.00   0.00  0.00  0.00  1.00  0.00  0.00  0.00     0.64   0.0001
  21                      1.00   0.00  0.00  0.00  1.00  0.00  0.00  0.00     0.63   0.0001
  22                      1.00   0.00  0.00  0.00  1.00  0.00  0.00  0.00     0.64   0.0001
  23                      1.00   0.00  0.00  0.00  1.00  0.00  0.00  0.00     0.63   0.0001
  24                      1.00   0.00  0.00  0.00  1.00  0.00  0.00  0.00     0.64   0.0001
  25                      1.00   0.00  0.00  0.00  1.00  0.00  0.00  0.00     0.64   0.0001
  26                      1.00   0.00  0.00  0.00  1.00  0.00  0.00  0.00     0.64   0.0001
  27                      1.00   0.00  0.00  0.00  1.00  0.00  0.00  0.00     0.63   0.0001
  28                      1.00   0.00  0.00  0.00  1.00  0.00  0.00  0.00     0.64   0.0001
  29                      1.00   0.00  0.00  0.00  1.00  0.00  0.00  0.00     0.64   0.0001
  30                      1.00   0.00  0.00  0.00  1.00  0.00  0.00  0.00     0.64   0.0001
  31                      1.00   0.00  0.00  0.00  1.00  0.00  0.00  0.00     0.64   0.0001
  32                      1.00   0.00  0.00  0.00  1.00  0.00  0.00  0.00     0.64   0.0001
  33                      1.00   0.00  0.00  0.00  1.00  0.00  0.00  0.00     0.64   0.0001
  34                      1.00   0.00  0.00  0.00  1.00  0.00  0.00  0.00     0.64   0.0001
  35                      1.00   0.00  0.00  0.00  1.00  0.00  0.00  0.00     0.64   0.0001
  36                      1.00   0.00  0.00  0.00  1.00  0.00  0.00  0.00     0.53   0.0001
  37                      1.00   0.00  0.00  0.00  1.00  0.00  0.00  0.00     0.62   0.0001
  38                      1.00   0.00  0.00  0.00  1.00  0.00  0.00  0.00     0.62   0.0001
  39                      1.00   0.00  0.00  0.00  1.00  0.00  0.00  0.00     0.54   0.0001
  40                      1.00   0.00  0.00  0.00  1.00  0.00  0.00  0.00     0.86   0.0000
  41                      1.00   0.00  0.00  0.00  0.23  0.77  0.00  0.00     1.11   0.0000
  42                      1.00   0.00  0.00  0.00  1.00  0.00  0.00  0.00     0.72   0.0001
  43                      1.00   0.00  0.00  0.00  0.15  0.85  0.00  0.00     1.12   0.0000
  44                      1.00   0.00  0.00  0.00  0.84  0.16  0.00  0.00     0.86   0.0000
  45                      1.00   0.00  0.00  0.00  0.00  1.00  0.00  0.00     1.42   0.0001
  46                      1.00   0.00  0.00  0.00  1.00  0.00  0.00  0.00     0.38   0.0010
  47                      1.00   0.00  0.00  0.00  1.00  0.00  0.00  0.00     0.51   0.0000
  47a                     1.00   0.00  0.00  0.00  0.86  0.14  0.00  0.00     0.84   0.0001
  49                      1.00   0.00  0.00  0.00  1.00  0.00  0.00  0.00     0.48   0.0001
  50                      1.00   0.00  0.00  0.00  1.00  0.00  0.00  0.00     0.31   0.0001
  51                      1.00   0.00  0.00  0.00  1.00  0.00  0.00  0.00     0.61   0.0000
  52                      1.00   0.00  0.00  0.00  0.52  0.48  0.00  0.00     1.01   0.0004
  53                      1.00   0.00  0.00  0.00  0.06  0.94  0.00  0.00     1.24   0.0001
  54                      1.00   0.00  0.00  0.00  1.00  0.00  0.00  0.00     0.58   0.0001
  55                      1.00   0.00  0.00  0.00  1.00  0.00  0.00  0.00     0.81   0.0001
  56a                     1.00   0.00  0.00  0.00  0.00  0.99  0.00  0.00     1.54   0.0000
  57                      1.00   0.00  0.00  0.00  1.00  0.00  0.00  0.00     0.62   0.0001
  58                      1.00   0.00  0.00  0.00  1.00  0.00  0.00  0.00     0.49   0.0005
  59                      1.00   0.00  0.00  0.00  1.00  0.00  0.00  0.00     0.42   0.0004
  60                      1.00   0.00  0.00  0.00  1.00  0.00  0.00  0.00     0.50   0.0008
  61                      1.00   0.00  0.00  0.00  1.00  0.00  0.00  0.00     0.23   0.0046
  62                      1.00   0.00  0.00  0.00  0.03  0.20  0.00  0.77     1.78   0.0000
  63                      1.00   0.00  0.00  0.00  0.53  0.47  0.00  0.00     0.91   0.0126
  64                      1.00   0.00  0.00  0.00  0.85  0.15  0.00  0.00     0.76   0.0001
  65                      1.00   0.00  0.00  0.00  0.01  0.99  0.00  0.00     1.57   0.0003
  66                      1.00   0.00  0.00  0.00  1.00  0.00  0.00  0.00     0.63   0.0000
  67                      1.00   0.00  0.00  0.00  1.00  0.00  0.00  0.00     0.44   0.0004
  68                      1.00   0.00  0.00  0.00  0.18  0.00  0.00  0.82     0.83   0.0000
  70                      1.00   0.00  0.00  0.00  1.00  0.00  0.00  0.00     0.67   0.0000
  71                      1.00   0.00  0.00  0.00  1.00  0.00  0.00  0.00     0.33   0.0000
  72                      1.00   0.00  0.00  0.00  1.00  0.00  0.00  0.00     0.36   0.0005
  73                      1.00   0.00  0.00  0.00  1.00  0.00  0.00  0.00     0.37   0.0006
  74                      1.00   0.00  0.00  0.00  1.00  0.00  0.00  0.00     0.18   0.0009
  75                      1.00   0.00  0.00  0.00  1.00  0.00  0.00  0.00     0.23   0.0000
  76                      1.00   0.00  0.00  0.00  1.00  0.00  0.00  0.00     0.47   0.0000
  77                      1.00   0.00  0.00  0.00  1.00  0.00  0.00  0.00     0.36   0.0000
  78                      1.00   0.00  0.00  0.00  0.51  0.49  0.00  0.00     0.81   0.0010
  79                      1.00   0.00  0.00  0.00  1.00  0.00  0.00  0.00     0.39   0.0000
  80                      1.00   0.00  0.00  0.00  0.35  0.65  0.00  0.00     1.11   0.0001
  81                      1.00   0.00  0.00  0.00  0.02  0.98  0.00  0.00     1.47   0.0001
  82                      1.00   0.00  0.00  0.00  0.06  0.94  0.00  0.00     1.25   0.0001
  83                      1.00   0.00  0.00  0.00  0.06  0.94  0.00  0.00     1.25   0.0001
  84                      1.00   0.00  0.00  0.00  0.06  0.94  0.00  0.00     1.25   0.0001
  85                      1.00   0.00  0.00  0.00  0.36  0.64  0.00  0.00     1.05   0.0001
  86                      1.00   0.00  0.00  0.00  0.08  0.92  0.00  0.00     1.20   0.0001
  87                      1.00   0.00  0.00  0.00  0.08  0.92  0.00  0.00     1.22   0.0001
  88                      1.00   0.00  0.00  0.00  0.08  0.92  0.00  0.00     1.23   0.0001
  89                      1.00   0.00  0.00  0.00  0.08  0.92  0.00  0.00     1.22   0.0000
  90                      1.00   0.00  0.00  0.00  0.08  0.92  0.00  0.00     1.23   0.0000
  91                      1.00   0.00  0.00  0.00  0.12  0.87  0.00  0.00     1.26   0.0001
  92                      1.00   0.00  0.00  0.00  0.09  0.91  0.00  0.00     1.23   0.0001
  93                      1.00   0.00  0.00  0.00  0.09  0.91  0.00  0.00     1.23   0.0001
  94                      1.00   0.00  0.00  0.00  0.09  0.91  0.00  0.00     1.23   0.0001
  95                      1.00   0.00  0.00  0.00  0.10  0.90  0.00  0.00     1.22   0.0001
  96                      1.00   0.00  0.00  0.00  0.09  0.90  0.00  0.00     1.23   0.0001
  97                      1.00   0.00  0.00  0.00  0.09  0.90  0.00  0.00     1.22   0.0001
  98                      1.00   0.00  0.00  0.00  0.60  0.39  0.00  0.00     0.87   0.0024
  99                      1.00   0.00  0.00  0.00  1.00  0.00  0.00  0.00     0.62   0.0002
  100                     1.00   0.00  0.00  0.00  1.00  0.00  0.00  0.00     0.57   0.0002
  101                     1.00   0.00  0.00  0.00  1.00  0.00  0.00  0.00     0.54   0.0002
  102                     1.00   0.00  0.00  0.00  1.00  0.00  0.00  0.00     0.58   0.0001
  103                     1.00   0.00  0.00  0.00  1.00  0.00  0.00  0.00     0.64   0.0001
  104                     1.00   0.00  0.00  0.00  1.00  0.00  0.00  0.00     0.66   0.0001
  105                     1.00   0.00  0.00  0.00  1.00  0.00  0.00  0.00     0.67   0.0001
  106                     1.00   0.00  0.00  0.00  1.00  0.00  0.00  0.00     0.67   0.0001
  107                     1.00   0.00  0.00  0.00  1.00  0.00  0.00  0.00     0.67   0.0001
  108                     1.00   0.00  0.00  0.00  1.00  0.00  0.00  0.00     0.67   0.0001
  109                     1.00   0.00  0.00  0.00  1.00  0.00  0.00  0.00     0.66   0.0001
  110                     1.00   0.00  0.00  0.00  1.00  0.00  0.00  0.00     0.67   0.0001
  111                     1.00   0.00  0.00  0.00  1.00  0.00  0.00  0.00     0.67   0.0001
  112                     1.00   0.00  0.00  0.00  1.00  0.00  0.00  0.00     0.67   0.0001
  113                     1.00   0.00  0.00  0.00  1.00  0.00  0.00  0.00     0.65   0.0001
  114                     1.00   0.00  0.00  0.00  0.50  0.50  0.00  0.00     0.96   0.0001
  115                     1.00   0.00  0.00  0.00  0.50  0.50  0.00  0.00     0.97   0.0001
  116                     1.00   0.00  0.00  0.00  0.50  0.49  0.00  0.00     0.97   0.0001
  117                     1.00   0.00  0.00  0.00  0.00  1.00  0.00  0.00     2.86   0.0002
  118                     1.00   0.00  0.00  0.00  0.16  0.84  0.00  0.00     1.45   0.0001
  119                     1.00   0.00  0.00  0.00  1.00  0.00  0.00  0.00     0.11   0.0001
  120                     1.00   0.00  0.00  0.00  1.00  0.00  0.00  0.00     0.54   0.0000
  121                     1.00   0.00  0.00  0.00  1.00  0.00  0.00  0.00     0.58   0.0001
  122                     1.00   0.00  0.00  0.00  1.00  0.00  0.00  0.00     0.62   0.0001
  123                     1.00   0.00  0.00  0.00  1.00  0.00  0.00  0.00     0.64   0.0001
  124                     1.00   0.00  0.00  0.00  1.00  0.00  0.00  0.00     0.42   0.0000
  125                     1.00   0.00  0.00  0.00  1.00  0.00  0.00  0.00     0.60   0.0001
  126                     1.00   0.00  0.00  0.00  1.00  0.00  0.00  0.00     0.46   0.0001
  127                     1.00   0.00  0.00  0.00  1.00  0.00  0.00  0.00     0.52   0.0001
  128                     1.00   0.00  0.00  0.00  1.00  0.00  0.00  0.00     0.52   0.0001
  129                     1.00   0.00  0.00  0.00  1.00  0.00  0.00  0.00     0.01   0.0001
  130                     1.00   0.00  0.00  0.00  1.00  0.00  0.00  0.00     0.16   0.0001
  131                     1.00   0.00  0.09  0.00  0.91  0.00  0.00  0.00     0.04   0.0000
  132                     1.00   0.00  0.00  0.00  0.41  0.59  0.00  0.00     1.02   0.0000
  133                     1.00   0.00  0.00  0.00  0.83  0.16  0.00  0.00     0.89   0.0000
  134                     1.00   0.00  0.00  0.00  0.56  0.44  0.00  0.00     0.96   0.0000
  135                     1.00   0.00  0.00  0.00  0.45  0.54  0.00  0.00     0.99   0.0000
  136                     1.00   0.00  0.00  0.00  0.40  0.60  0.00  0.00     1.00   0.0000
  137                     1.00   0.00  0.00  0.00  1.00  0.00  0.00  0.00     0.63   0.0000
  138                     1.00   0.00  0.00  0.00  1.00  0.00  0.00  0.00     0.39   0.0002
  139                     1.00   0.00  0.00  0.00  1.00  0.00  0.00  0.00     0.25   0.0002
  140                     1.00   0.00  0.00  0.00  1.00  0.00  0.00  0.00     0.21   0.0002
  141                     1.00   0.00  0.00  0.00  1.00  0.00  0.00  0.00     0.19   0.0002
  142                     1.00   0.00  0.00  0.00  1.00  0.00  0.00  0.00     0.18   0.0002
  143                     1.00   0.00  0.00  0.00  1.00  0.00  0.00  0.00     0.17   0.0002
  144                     1.00   0.00  0.00  0.00  1.00  0.00  0.00  0.00     0.16   0.0002
  145                     1.00   0.00  0.00  0.00  1.00  0.00  0.00  0.00     0.15   0.0003
  146                     1.00   0.00  0.00  0.00  1.00  0.00  0.00  0.00     0.15   0.0003
  147                     1.00   0.00  0.00  0.00  1.00  0.00  0.00  0.00     0.15   0.0005
  148                     1.00   0.00  0.00  0.00  1.00  0.00  0.00  0.00     0.13   0.0391
  149                     1.00   0.00  0.00  0.00  1.00  0.00  0.00  0.00     0.09   0.0021
  150                     1.00   0.00  0.00  0.00  1.00  0.00  0.00  0.00     0.20   0.0003
  151                     1.00   0.00  0.00  0.00  1.00  0.00  0.00  0.00     0.48   0.0003
  152                     1.00   0.00  0.00  0.00  1.00  0.00  0.00  0.00     0.60   0.0002
  153                     1.00   0.00  0.00  0.00  1.00  0.00  0.00  0.00     0.64   0.0001
  154                     1.00   0.00  0.00  0.00  1.00  0.00  0.00  0.00     0.64   0.0001
  155                     1.00   0.00  0.00  0.00  1.00  0.00  0.00  0.00     0.64   0.0002
  156                     1.00   0.00  0.00  0.00  1.00  0.00  0.00  0.00     0.64   0.0002
  157                     1.00   0.00  0.00  0.00  1.00  0.00  0.00  0.00     0.64   0.0001
  158                     1.00   0.00  0.00  0.00  1.00  0.00  0.00  0.00     0.64   0.0001
  159                     1.00   0.00  0.00  0.00  1.00  0.00  0.00  0.00     0.66   0.0001
  160                     1.00   0.00  0.00  0.00  1.00  0.00  0.00  0.00     0.21   0.0000
  161                     1.00   0.00  0.00  0.00  1.00  0.00  0.00  0.00     0.32   0.0000
  162                     1.00   0.00  0.00  0.00  1.00  0.00  0.00  0.00     0.04   0.0000
  163                     1.00   0.00  0.00  0.00  1.00  0.00  0.00  0.00     0.15   0.0000
  164                     1.00   0.00  0.00  0.00  1.00  0.00  0.00  0.00     0.19   0.0000
  165                     1.00   0.00  0.00  0.00  1.00  0.00  0.00  0.00     0.22   0.0000
  166                     1.00   0.00  0.00  0.00  1.00  0.00  0.00  0.00     0.22   0.0000
  167                     1.00   0.00  0.00  0.00  1.00  0.00  0.00  0.00     0.23   0.0000
  168                     1.00   0.00  0.00  0.00  1.00  0.00  0.00  0.00     0.25   0.0000
  169                     1.00   0.00  0.00  0.00  1.00  0.00  0.00  0.00     0.24   0.0000
  170                     1.00   0.00  0.00  0.00  1.00  0.00  0.00  0.00     0.26   0.0000
  171                     1.00   0.00  0.00  0.00  1.00  0.00  0.00  0.00     0.26   0.0000
  172                     1.00   0.00  0.00  0.00  1.00  0.00  0.00  0.00     0.03   0.0000
  173                     1.00   0.00  0.00  0.00  1.00  0.00  0.00  0.00     0.28   0.0000
  174                     1.00   0.00  0.09  0.00  0.91  0.00  0.00  0.00     0.00   0.0000
  47b                     1.00   0.00  0.00  0.00  0.20  0.80  0.00  0.00     1.17   0.0001
  48                      1.00   0.00  0.00  0.00  1.00  0.00  0.00  0.00     0.75   0.0002
  56                      1.00   0.00  0.00  0.00  0.99  0.00  0.00  0.00     0.72   0.0025
  80-a                    1.00   0.00  0.00  0.00  0.07  0.93  0.00  0.00     1.14   0.0000
  81-a                    1.00   0.00  0.00  0.00  0.00  1.00  0.00  0.00     1.36   0.0001
  82-a                    1.00   0.00  0.00  0.00  0.05  0.94  0.00  0.00     1.18   0.0001
  83-a                    1.00   0.00  0.00  0.00  0.04  0.96  0.00  0.00     1.19   0.0001
  84-a                    1.00   0.00  0.00  0.00  0.04  0.96  0.00  0.00     1.19   0.0001
  85-a                    1.00   0.00  0.00  0.00  0.34  0.66  0.00  0.00     1.02   0.0000
  86-a                    1.00   0.00  0.00  0.00  0.08  0.92  0.00  0.00     1.15   0.0000
  87-a                    1.00   0.00  0.00  0.00  0.06  0.93  0.00  0.00     1.17   0.0000
  88-a                    1.00   0.00  0.00  0.00  0.07  0.93  0.00  0.00     1.17   0.0000
  89-a                    1.00   0.00  0.00  0.00  0.07  0.93  0.00  0.00     1.17   0.0000
  90-a                    1.00   0.00  0.00  0.00  0.07  0.93  0.00  0.00     1.18   0.0000
  69                      1.00   0.00  0.00  0.00  0.99  0.01  0.00  0.00     0.94   0.0001
  
  
  *************************
  Conduit Surcharge Summary
  *************************
  
  ----------------------------------------------------------------------------
                                                           Hours        Hours 
                         --------- Hours Full --------   Above Full   Capacity
  Conduit                Both Ends  Upstream  Dnstream   Normal Flow   Limited
  ----------------------------------------------------------------------------
  2                           0.01      0.01      0.01      0.19         0.01
  3                           0.01      0.01      0.01      0.25         0.01
  4                           0.01      0.01      0.01      0.22         0.01
  5                           0.01      0.01      0.01      0.24         0.01
  6                           0.01      0.01      0.01      0.25         0.01
  7                           0.01      0.01      0.01      0.26         0.01
  8                           0.01      0.01      0.01      0.26         0.01
  9                           0.01      0.01      0.01      0.26         0.01
  10                          0.01      0.01      0.01      0.26         0.01
  11                          0.20      0.20      0.23      0.26         0.20
  12                          0.26      0.26      0.26      0.15         0.19
  13                          0.26      0.26      0.26      0.05         0.09
  14                          0.26      0.26      0.26      0.01         0.02
  15                          0.26      0.26      0.26      0.01         0.02
  16                          0.26      0.26      0.26      0.01         0.02
  17                          0.26      0.26      0.26      0.02         0.04
  18                          0.24      0.24      0.24      0.01         0.01
  19                          0.23      0.23      0.23      0.01         0.01
  20                          0.22      0.22      0.22      0.01         0.01
  21                          0.20      0.20      0.20      0.01         0.01
  22                          0.18      0.18      0.18      0.01         0.01
  39                          0.01      0.01      0.01      0.43         0.01
  42                          0.01      0.01      0.01      0.49         0.01
  46                          0.01      0.01      0.01      2.54         0.01
  52                          0.01      0.01      0.01      0.59         0.01
  54                          0.17      0.17      0.17      0.01         0.01
  58                          0.01      0.01      0.01      0.13         0.01
  59                          0.01      0.01      0.01      0.05         0.01
  60                          0.01      0.01      0.01      0.39         0.01
  61                          0.01      0.01      0.01      1.16         0.01
  63                          0.01      0.01      0.01      0.54         0.01
  65                          0.01      0.01      0.01      0.42         0.01
  67                          0.01      0.01      0.01      0.74         0.01
  72                          0.01      0.01      0.01      1.11         0.01
  73                          0.01      0.01      0.01      1.27         0.01
  74                          0.01      0.01      0.01      1.48         0.01
  78                          0.01      0.01      0.01      0.97         0.01
  98                          0.01      0.01      0.01      0.13         0.01
  99                          0.01      0.01      0.01      0.12         0.01
  100                         0.01      0.01      0.01      0.12         0.01
  101                         0.01      0.01      0.01      0.12         0.01
  117                         0.01      0.01      0.01      0.86         0.01
  118                         0.76      0.76      0.76      0.86         0.76
  119                         0.73      0.73      0.73      0.01         0.01
  120                         0.65      0.65      0.65      0.01         0.01
  124                         0.54      0.54      0.54      0.01         0.01
  125                         0.42      0.42      0.42      0.30         0.30
  126                         0.40      0.40      0.40      0.30         0.30
  127                         0.38      0.38      0.38      0.29         0.30
  128                         0.36      0.36      0.36      0.26         0.27
  138                         0.01      0.01      0.01      2.66         0.01
  139                         0.01      0.01      0.01      2.66         0.01
  140                         0.01      0.01      0.01      2.66         0.01
  141                         0.01      0.01      0.01      2.66         0.01
  142                         0.01      0.01      0.01      2.66         0.01
  143                         0.01      0.01      0.01      2.66         0.01
  144                         0.01      0.01      0.01      2.65         0.01
  145                         0.01      0.01      0.01      2.64         0.01
  146                         0.01      0.01      0.01      2.64         0.01
  147                         0.01      0.01      0.01      2.63         0.01
  148                         0.64      0.64      0.96      2.63         0.64
  149                         2.15      2.15      2.15      1.50         1.87
  150                         1.79      1.79      1.79      0.01         0.01
  151                         1.43      1.43      1.43      0.01         0.01
  152                         1.46      1.46      1.46      0.01         0.01
  153                         1.42      1.42      1.42      0.02         0.02
  154                         1.34      1.34      1.34      0.03         0.03
  155                         1.30      1.30      1.30      0.01         0.01
  156                         1.27      1.27      1.27      0.01         0.01
  157                         1.25      1.25      1.25      0.01         0.01
  159                         0.01      0.01      0.01      0.01         0.01
  47b                         0.35      0.35      0.35      0.01         0.35
  48                          0.39      0.39      0.39      0.53         0.39
  56                          0.01      0.01      0.01      1.54         0.01
  69                          0.01      0.01      0.01      0.41         0.01
  

  Analysis begun on:  Fri Oct 25 11:53:50 2013
  Analysis ended on:  Fri Oct 25 11:53:56 2013
  Total elapsed time: 00:00:06