[TITLE]
Scenario Run :  SCN-22May 5 - The UH duration in the simulation options was varied from 5 - 20 minutes in 5 minute increments and no change in the runoff occured
SCS Type II 24 hr 100 yr storm for storage.
SCS Type II 24 hr 25 yr storm for major conveyance

[OPTIONS]
FLOW_UNITS           CFS
INFILTRATION         CURVE_NUMBER
FLOW_ROUTING         DYNWAVE
START_DATE           01/01/2002
START_TIME           00:00:00
REPORT_START_DATE    01/01/2002
REPORT_START_TIME    00:00:00
END_DATE             01/01/2002
END_TIME             00:05:00
SWEEP_START          01/01
SWEEP_END            12/31
DRY_DAYS             5.000000
REPORT_STEP          00:05:00
WET_STEP             00:10:00
DRY_STEP             23:00:00
ROUTING_STEP         0:00:05 
ALLOW_PONDING        YES
INERTIAL_DAMPING     PARTIAL
VARIABLE_STEP        0.00
LENGTHENING_STEP     5
MIN_SURFAREA         0
NORMAL_FLOW_LIMITED  BOTH
SKIP_STEADY_STATE    NO
FORCE_MAIN_EQUATION  H-W
LINK_OFFSETS         DEPTH
MIN_SLOPE            0

[EVAPORATION]
;;Type       Parameters
;;---------- ----------
CONSTANT     0.000000
DRY_ONLY     NO

[RAINGAGES]
;;               Rain      Time   Snow   Data      
;;Name           Type      Intrvl Catch  Source    
;;-------------- --------- ------ ------ ----------
; Logan USU
RAINGAGE-1       CUMULATIVE 0.500000 1.000000 TIMESERIES TIMESERI-23     
; Logan USU Exp. Stn.
RAINGAGE-2       CUMULATIVE 0.500000 1.000000 TIMESERIES TIMESERI-19     
; Logan Radio KVNU
RAINGAGE-3       CUMULATIVE 0.500000 1.000000 TIMESERIES TIMESERI-21     
; Logan 5 SW Exp. Farm
RAINGAGE-4       CUMULATIVE 0.500000 1.000000 TIMESERIES TIMESERI-17     

[SUBCATCHMENTS]
;;                                                 Total    Pcnt.             Pcnt.    Curb     Snow    
;;Name           Raingage         Outlet           Area     Imperv   Width    Slope    Length   Pack    
;;-------------- ---------------- ---------------- -------- -------- -------- -------- -------- --------
; New Subcatchment
SUB-1000         RAINGAGE-3       OFALL-152        6.905927 25.000000 500.000000 2.850000 0.000000                 
; New Subcatchment
SUB-1002         RAINGAGE-3       OFALL-154        136.833314 25.000000 500.000000 0.860000 0.000000                 
; New Subcatchment
SUB-1004         RAINGAGE-3       OFALL-128        114.474560 25.000000 500.000000 0.860000 0.000000                 
; New Subcatchment
SUB-1006         RAINGAGE-2       JCT-1096         18.381845 25.000000 500.000000 2.370000 0.000000                 
; New Subcatchment
SUB-1008         RAINGAGE-3       STOR-84          35.391204 25.000000 500.000000 5.300000 0.000000                 
; New Subcatchment
SUB-1010         RAINGAGE-3       JCT-298          55.562662 25.000000 500.000000 2.500000 0.000000                 
; New Subcatchment
SUB-1012         RAINGAGE-3       JCT-74           1.033381 25.000000 500.000000 2.100000 0.000000                 
; New Subcatchment
SUB-1014         RAINGAGE-3       JCT-76           0.762260 25.000000 500.000000 2.200000 0.000000                 
; New Subcatchment
SUB-1016         RAINGAGE-3       JCT-84           0.852482 25.000000 500.000000 2.000000 0.000000                 
; New Subcatchment
SUB-1018         RAINGAGE-3       JCT-88           0.302469 25.000000 500.000000 2.000000 0.000000                 
; New Subcatchment
SUB-1020         RAINGAGE-3       JCT-98           0.748914 25.000000 500.000000 2.000000 0.000000                 
; New Subcatchment
SUB-1022         RAINGAGE-2       STOR-78          32.117901 25.000000 500.000000 2.230000 0.000000                 
; New Subcatchment
SUB-1024         RAINGAGE-2       JCT-486          22.828569 25.000000 500.000000 2.800000 0.000000                 
; New Subcatchment
SUB-1028         RAINGAGE-3       JCT-974          20.556420 25.000000 500.000000 2.830000 0.000000                 
; New Subcatchment
SUB-1032         RAINGAGE-4       JCT-1080         30.237222 25.000000 500.000000 0.850000 0.000000                 
; New Subcatchment
SUB-1034         RAINGAGE-3       STOR-112         10.434745 25.000000 500.000000 3.075200 0.000000                 
; New Subcatchment
SUB-1036         RAINGAGE-1       JCT-1170         21.849495 25.000000 500.000000 4.710700 0.000000                 
; New Subcatchment
SUB-1038         RAINGAGE-1       JCT-1168         14.991803 25.000000 500.000000 5.098700 0.000000                 
; New Subcatchment
SUB-1040         RAINGAGE-1       JCT-1166         13.853334 25.000000 500.000000 4.604700 0.000000                 
; New Subcatchment
SUB-1042         RAINGAGE-1       JCT-1164         15.465643 25.000000 500.000000 4.648000 0.000000                 
; New Subcatchment
SUB-1044         RAINGAGE-3       JCT-1230         9.945378 25.000000 500.000000 2.600000 0.000000                 
SUB-542          RAINGAGE-2       JCT-576          67.821130 25.000000 5349.014761 1.737212 0.000000                 
; JCT-1012
SUB-544          RAINGAGE-2       JCT-1012         8.710369 25.000000 1235.759208 1.919283 0.000000                 
SUB-546          RAINGAGE-3       JCT-1070         54.727401 25.000000 3382.489036 2.272366 0.000000                 
SUB-548          RAINGAGE-2       JCT-576          120.776979 25.000000 7729.067449 1.937992 0.000000                 
SUB-550          RAINGAGE-3       JCT-1072         29.683792 25.000000 3356.313104 3.156622 0.000000                 
SUB-552          RAINGAGE-2       JCT-162          177.175931 25.000000 11968.082593 1.942384 0.000000                 
SUB-556          RAINGAGE-2       JCT-470          21.187734 25.000000 2607.335205 3.080183 0.000000                 
SUB-558          RAINGAGE-2       JCT-478          29.380893 25.000000 4639.769264 2.841544 0.000000                 
SUB-562          RAINGAGE-3       JCT-1064         117.205085 25.000000 5803.392396 3.072751 0.000000                 
SUB-564          RAINGAGE-2       STOR-18          46.706803 25.000000 4559.547049 2.373346 0.000000                 
SUB-566          RAINGAGE-2       JCT-606          42.525586 25.000000 4260.940527 2.925919 0.000000                 
SUB-568          RAINGAGE-3       JCT-1116         1.459930 25.000000 528.908096 3.933535 0.000000                 
SUB-570          RAINGAGE-3       STOR-50          21.098020 25.000000 1888.999100 0.850200 0.000000                 
SUB-574          RAINGAGE-3       STOR-106         63.643261 25.000000 4579.033427 2.254636 0.000000                 
SUB-576          RAINGAGE-2       STOR-64          128.811110 25.000000 4267.126997 2.722165 0.000000                 
SUB-582          RAINGAGE-2       JCT-1018         61.983119 25.000000 3519.193191 2.965241 0.000000                 
SUB-586          RAINGAGE-2       JCT-1098         40.604073 25.000000 4223.222689 2.733973 0.000000                 
SUB-588          RAINGAGE-3       OFALL-148        23.713366 25.000000 2403.212400 3.500000 0.000000                 
SUB-592          RAINGAGE-3       JCT-1092         21.333340 25.000000 2640.185074 3.478707 0.000000                 
SUB-594          RAINGAGE-2       STOR-104         148.233190 25.000000 7167.654726 3.786655 0.000000                 
SUB-596          RAINGAGE-3       STOR-90          92.112809 25.000000 4903.521394 2.548161 0.000000                 
SUB-598          RAINGAGE-3       JCT-774          2.250044 25.000000 1198.993993 2.393858 0.000000                 
SUB-600          RAINGAGE-3       JCT-1218         27.441436 25.000000 3969.910925 3.358222 0.000000                 
SUB-602          RAINGAGE-3       JCT-750          42.617364 25.000000 6488.624326 2.987730 0.000000                 
SUB-604          RAINGAGE-3       OFALL-32         39.389572 25.000000 2399.631651 1.827317 0.000000                 
SUB-608          RAINGAGE-2       JCT-602          38.229830 25.000000 2373.939281 2.999949 0.000000                 
SUB-610          RAINGAGE-3       OFALL-144        15.934805 25.000000 1977.468600 2.719400 0.000000                 
SUB-612          RAINGAGE-2       JCT-914          155.437907 25.000000 4693.775389 2.064371 0.000000                 
SUB-614          RAINGAGE-3       JCT-774          1.819778 25.000000 1185.005274 2.552875 0.000000                 
SUB-616          RAINGAGE-3       JCT-38           65.004067 25.000000 4243.950600 2.368408 0.000000                 
SUB-618          RAINGAGE-3       JCT-1226         25.459603 25.000000 3178.304831 2.279698 0.000000                 
SUB-620          RAINGAGE-3       JCT-1226         7.580783 25.000000 1330.078901 2.778502 0.000000                 
SUB-622          RAINGAGE-1       JCT-1190         30.296031 25.000000 3958.572595 4.648011 0.000000                 
SUB-624          RAINGAGE-3       JCT-1116         8.343965 25.000000 1425.288751 3.113300 0.000000                 
SUB-626          RAINGAGE-3       JCT-1112         6.894654 25.000000 1315.588215 3.179938 0.000000                 
SUB-628          RAINGAGE-3       STOR-50          10.955499 25.000000 3434.843100 1.587300 0.000000                 
SUB-630          RAINGAGE-3       OFALL-146        15.166346 25.000000 2286.471400 1.380900 0.000000                 
SUB-634          RAINGAGE-1       JCT-1194         34.214197 25.000000 3794.336637 5.098710 0.000000                 
SUB-636          RAINGAGE-2       JCT-556          21.233402 25.000000 2771.948196 3.032386 0.000000                 
SUB-638          RAINGAGE-2       JCT-1212         33.635897 25.000000 2443.664798 2.902396 0.000000                 
SUB-640          RAINGAGE-2       JCT-536          134.397638 25.000000 6906.601508 2.161927 0.000000                 
SUB-642          RAINGAGE-3       STOR-86          48.694371 25.000000 4761.387623 5.361688 0.000000                 
SUB-650          RAINGAGE-3       JCT-752          70.673787 25.000000 7125.245723 3.144945 0.000000                 
SUB-652          RAINGAGE-3       JCT-764          113.368872 25.000000 5794.418890 4.016440 0.000000                 
SUB-658          RAINGAGE-3       JCT-1110         8.664248 25.000000 1240.397946 3.432906 0.000000                 
SUB-660          RAINGAGE-3       JCT-758          11.405767 25.000000 1375.870608 2.981402 0.000000                 
SUB-664          RAINGAGE-3       STOR-48          14.169223 25.000000 3023.230900 2.011200 0.000000                 
SUB-668          RAINGAGE-2       JCT-1214         63.902741 25.000000 5819.559654 2.747144 0.000000                 
SUB-682          RAINGAGE-3       JCT-1220         25.526862 25.000000 4668.061268 2.302539 0.000000                 
SUB-684          RAINGAGE-3       JCT-1224         53.989268 25.000000 4732.494931 2.521459 0.000000                 
SUB-686          RAINGAGE-3       JCT-1222         69.401372 25.000000 4785.569628 2.428785 0.000000                 
SUB-688          RAINGAGE-1       JCT-1192         35.080553 25.000000 3826.858554 4.604650 0.000000                 
SUB-690          RAINGAGE-3       JCT-740          35.565174 25.000000 2733.085315 2.891979 0.000000                 
SUB-694          RAINGAGE-1       JCT-680          28.171348 25.000000 3637.969299 3.485002 0.000000                 
SUB-698          RAINGAGE-3       JCT-1108         77.873183 25.000000 4056.664853 2.309021 0.000000                 
SUB-702          RAINGAGE-3       JCT-1116         17.714142 25.000000 1790.806983 3.530186 0.000000                 
SUB-706          RAINGAGE-1       JCT-738          15.642661 25.000000 3495.024572 2.727216 0.000000                 
SUB-710          RAINGAGE-1       JCT-784          81.491886 25.000000 3806.779854 2.970572 0.000000                 
SUB-712          RAINGAGE-1       STOR-118         27.099545 25.000000 2367.456650 17.444849 0.000000                 
SUB-714          RAINGAGE-2       JCT-546          33.267485 25.000000 2627.920892 4.979839 0.000000                 
SUB-716          RAINGAGE-2       JCT-1200         30.856532 25.000000 4550.160257 4.014203 0.000000                 
SUB-718          RAINGAGE-3       STOR-16          2.618732 25.000000 1766.693579 2.571410 0.000000                 
SUB-722          RAINGAGE-3       STOR-16          19.812708 25.000000 1729.764946 3.094434 0.000000                 
SUB-724          RAINGAGE-2       JCT-544          12.046188 25.000000 1346.124572 6.266186 0.000000                 
SUB-726          RAINGAGE-1       STOR-14          17.947589 25.000000 3520.709133 3.254663 0.000000                 
SUB-736          RAINGAGE-1       JCT-1186         7.341781 25.000000 1339.649749 9.600404 0.000000                 
SUB-738          RAINGAGE-3       JCT-1184         23.265503 25.000000 3233.224538 8.024135 0.000000                 
SUB-740          RAINGAGE-3       JCT-772          32.231817 25.000000 2473.761096 3.896658 0.000000                 
SUB-742          RAINGAGE-3       STOR-48          12.375878 25.000000 2843.054124 3.851189 0.000000                 
SUB-744          RAINGAGE-1       JCT-1198         36.148929 25.000000 4169.414561 4.334899 0.000000                 
; JCT-650
SUB-746          RAINGAGE-1       JCT-1196         37.208152 25.000000 3974.394053 4.710704 0.000000                 
SUB-748          RAINGAGE-1       JCT-1176         35.069444 25.000000 3912.844471 6.785656 0.000000                 
SUB-750          RAINGAGE-2       JCT-640          24.293800 25.000000 2542.125165 4.718851 0.000000                 
SUB-752          RAINGAGE-1       JCT-642          6.793695 25.000000 1351.804055 4.934467 0.000000                 
SUB-762          RAINGAGE-1       JCT-1188         27.699208 25.000000 4469.451691 5.713082 0.000000                 
SUB-766          RAINGAGE-2       JCT-1266         17.238397 25.000000 2364.776701 3.083220 0.000000                 
SUB-770          RAINGAGE-3       JCT-778          17.551265 25.000000 2248.748586 3.831860 0.000000                 
SUB-772          RAINGAGE-3       OFALL-150        38.067268 25.000000 3607.740800 2.965100 0.000000                 
SUB-774          RAINGAGE-1       JCT-1172         19.001972 25.000000 2250.257278 9.992063 0.000000                 
SUB-776          RAINGAGE-1       JCT-1234         175.565096 25.000000 7515.394943 52.328733 0.000000                 
SUB-780          RAINGAGE-2       JCT-726          62.511844 25.000000 3784.819891 2.757622 0.000000                 
SUB-790          RAINGAGE-1       JCT-642          19.553335 25.000000 2677.656948 11.534904 0.000000                 
SUB-796          RAINGAGE-2       JCT-1202         17.954617 25.000000 2263.659252 3.648734 0.000000                 
SUB-802          RAINGAGE-3       JCT-1182         9.253820 25.000000 2056.807369 8.850931 0.000000                 
SUB-804          RAINGAGE-1       JCT-698          51.483337 25.000000 3225.543169 2.747013 0.000000                 
SUB-806          RAINGAGE-2       JCT-632          62.431408 40.000000 4250.751702 4.766074 0.000000                 
SUB-810          RAINGAGE-1       JCT-560          79.582482 30.000000 5525.804926 5.944569 0.000000                 
SUB-812          RAINGAGE-1       JCT-570          61.083024 25.000000 4572.778468 2.657351 0.000000                 
SUB-814          RAINGAGE-2       JCT-548          26.129675 25.000000 3555.640494 3.473847 0.000000                 
SUB-816          RAINGAGE-3       STOR-94          39.709996 25.000000 5647.375877 3.075217 0.000000                 
SUB-818          RAINGAGE-1       JCT-718          141.349405 0.000000 10235.199479 56.393047 0.000000                 
SUB-820          RAINGAGE-2       JCT-1204         13.854700 25.000000 2487.483214 3.628801 0.000000                 
SUB-830          RAINGAGE-1       JCT-716          176.102495 25.000000 9836.437447 57.409600 0.000000                 
SUB-840          RAINGAGE-1       JCT-1238         7.889248 25.000000 1309.621659 4.569979 0.000000                 
SUB-844          RAINGAGE-1       JCT-718          44.209643 25.000000 2938.871131 11.251542 0.000000                 
; JCT-716
SUB-846          RAINGAGE-1       STOR-122         30.779071 25.000000 2258.392732 13.923946 0.000000                 
SUB-848          RAINGAGE-1       JCT-562          87.303172 25.000000 5105.808437 4.167316 0.000000                 
SUB-850          RAINGAGE-1       STOR-10          55.073418 25.000000 3388.048226 3.699268 0.000000                 
SUB-852          RAINGAGE-1       JCT-542          14.998921 25.000000 3258.338954 5.768533 0.000000                 
SUB-854          RAINGAGE-1       JCT-146          51.507061 25.000000 3458.884320 8.907886 0.000000                 
SUB-856          RAINGAGE-1       JCT-144          52.978402 25.000000 3203.440575 5.711599 0.000000                 
; New Subcatchment
SUB-866          RAINGAGE-1       JCT-664          2.090462 25.000000 500.000000 1.270000 0.000000                 
; New Subcatchment
SUB-868          RAINGAGE-1       JCT-542          21.719828 25.000000 500.000000 4.200000 0.000000                 
; New Subcatchment
SUB-870          RAINGAGE-1       JCT-664          11.738616 25.000000 500.000000 0.900000 0.000000                 
; New Subcatchment
SUB-872          RAINGAGE-2       JCT-1126         12.494091 25.000000 500.000000 3.200000 0.000000                 
; New Subcatchment
SUB-874          RAINGAGE-2       JCT-552          20.077608 25.000000 500.000000 3.273500 0.000000                 
; New Subcatchment
SUB-876          RAINGAGE-2       JCT-724          32.135960 25.000000 500.000000 3.375700 0.000000                 
; New Subcatchment
SUB-882          RAINGAGE-1       JCT-1188         45.270064 25.000000 500.000000 3.500000 0.000000                 
; New Subcatchment
SUB-884          RAINGAGE-1       JCT-738          78.446695 25.000000 500.000000 4.000000 0.000000                 
; New Subcatchment
SUB-892          RAINGAGE-4       STOR-40          5.517135 25.000000 500.000000 0.207000 0.000000                 
; New Subcatchment
SUB-894          RAINGAGE-4       STOR-42          6.298914 25.000000 500.000000 0.210000 0.000000                 
; New Subcatchment
SUB-898          RAINGAGE-4       STOR-46          41.925775 25.000000 500.000000 0.770000 0.000000                 
; New Subcatchment
SUB-900          RAINGAGE-3       STOR-50          13.458598 25.000000 500.000000 0.350000 0.000000                 
; New Subcatchment
SUB-902          RAINGAGE-4       STOR-50          42.994417 25.000000 500.000000 0.760000 0.000000                 
; New Subcatchment
SUB-904          RAINGAGE-4       STOR-56          10.209505 25.000000 500.000000 0.250000 0.000000                 
; New Subcatchment
SUB-908          RAINGAGE-4       STOR-54          36.050111 25.000000 500.000000 0.610000 0.000000                 
; New Subcatchment
SUB-910          RAINGAGE-4       STOR-52          14.675646 25.000000 500.000000 0.730000 0.000000                 
; New Subcatchment
SUB-914          RAINGAGE-4       STOR-44          28.182032 25.000000 500.000000 0.450000 0.000000                 
; New Subcatchment
SUB-916          RAINGAGE-4       STOR-58          26.337280 25.000000 500.000000 0.550000 0.000000                 
; New Subcatchment
SUB-926          RAINGAGE-2       JCT-1008         40.702701 25.000000 500.000000 2.350000 0.000000                 
; New Subcatchment
SUB-932          RAINGAGE-2       JCT-176          95.903779 25.000000 500.000000 1.850000 0.000000                 
; New Subcatchment
SUB-934          RAINGAGE-2       JCT-1014         72.103542 25.000000 500.000000 1.400000 0.000000                 
; New Subcatchment
SUB-936          RAINGAGE-2       JCT-1162         38.261419 25.000000 500.000000 3.220000 0.000000                 
; New Subcatchment
SUB-938          RAINGAGE-2       JCT-1264         37.151869 25.000000 500.000000 3.350000 0.000000                 
; New Subcatchment
SUB-940          RAINGAGE-2       JCT-962          17.029210 25.000000 500.000000 3.380000 0.000000                 
; New Subcatchment
SUB-942          RAINGAGE-3       JCT-966          79.482669 25.000000 500.000000 2.750000 0.000000                 
; New Subcatchment
SUB-944          RAINGAGE-3       JCT-928          52.960657 25.000000 500.000000 3.180000 0.000000                 
; New Subcatchment
SUB-946          RAINGAGE-3       STOR-80          65.882566 25.000000 500.000000 3.180000 0.000000                 
; New Subcatchment
SUB-948          RAINGAGE-3       OFALL-106        80.657522 25.000000 500.000000 3.180000 0.000000                 
; New Subcatchment
SUB-950          RAINGAGE-3       JCT-960          37.659054 25.000000 500.000000 2.600000 0.000000                 
; New Subcatchment
SUB-952          RAINGAGE-3       JCT-964          22.586863 25.000000 500.000000 2.600000 0.000000                 
; New Subcatchment
SUB-954          RAINGAGE-3       JCT-1028         28.911234 25.000000 500.000000 2.600000 0.000000                 
; New Subcatchment
SUB-956          RAINGAGE-3       JCT-434          24.748101 25.000000 500.000000 3.387200 0.000000                 
; New Subcatchment
SUB-958          RAINGAGE-3       JCT-516          35.300807 25.000000 500.000000 3.387000 0.000000                 
; New Subcatchment
SUB-960          RAINGAGE-3       JCT-932          25.174943 25.000000 500.000000 3.200000 0.000000                 
; New Subcatchment
SUB-964          RAINGAGE-3       JCT-1036         88.973130 25.000000 500.000000 2.907100 0.000000                 
; New Subcatchment
SUB-966          RAINGAGE-3       JCT-352          65.161927 25.000000 500.000000 2.907100 0.000000                 
; New Subcatchment
SUB-968          RAINGAGE-3       STOR-100         86.875252 25.000000 500.000000 3.338700 0.000000                 
; New Subcatchment
SUB-970          RAINGAGE-3       JCT-120          67.346907 25.000000 500.000000 3.338700 0.000000                 
; New Subcatchment
SUB-972          RAINGAGE-3       JCT-142          42.484706 25.000000 500.000000 3.338700 0.000000                 
; New Subcatchment
SUB-974          RAINGAGE-3       OFALL-158        99.947449 25.000000 500.000000 2.500000 0.000000                 
; New Subcatchment
SUB-976          RAINGAGE-3       STOR-28          53.746482 25.000000 500.000000 2.550000 0.000000                 
; New Subcatchment
SUB-978          RAINGAGE-3       JCT-1062         32.799069 25.000000 500.000000 2.450000 0.000000                 
; New Subcatchment
SUB-980          RAINGAGE-3       JCT-62           65.551801 25.000000 500.000000 2.350000 0.000000                 
; New Subcatchment
SUB-982          RAINGAGE-3       JCT-1070         100.913434 25.000000 500.000000 2.200000 0.000000                 
; New Subcatchment
SUB-984          RAINGAGE-3       JCT-1086         61.713643 25.000000 500.000000 2.220000 0.000000                 
; New Subcatchment
SUB-986          RAINGAGE-3       JCT-1088         50.281107 25.000000 500.000000 1.800000 0.000000                 
; New Subcatchment
SUB-988          RAINGAGE-3       JCT-102          21.515251 25.000000 500.000000 1.800000 0.000000                 
; New Subcatchment
SUB-990          RAINGAGE-3       JCT-70           16.554150 25.000000 500.000000 2.225000 0.000000                 
; New Subcatchment
SUB-992          RAINGAGE-3       JCT-1092         21.951003 25.000000 500.000000 2.350000 0.000000                 
; New Subcatchment
SUB-996          RAINGAGE-4       OFALL-124        29.684383 25.000000 500.000000 0.780000 0.000000                 

[SUBAREAS]
;;Subcatchment   N-Imperv   N-Perv     S-Imperv   S-Perv     PctZero    RouteTo    PctRouted 
;;-------------- ---------- ---------- ---------- ---------- ---------- ---------- ----------
SUB-1000         0.100000   0.001000   0.050000   0.050000   25.000000  OUTLET    
SUB-1002         0.100000   0.001000   0.050000   0.050000   25.000000  OUTLET    
SUB-1004         0.100000   0.001000   0.050000   0.050000   25.000000  OUTLET    
SUB-1006         0.100000   0.001000   0.050000   0.050000   25.000000  OUTLET    
SUB-1008         0.100000   0.001000   0.050000   0.050000   25.000000  OUTLET    
SUB-1010         0.100000   0.001000   0.050000   0.050000   25.000000  OUTLET    
SUB-1012         0.100000   0.001000   0.050000   0.050000   25.000000  OUTLET    
SUB-1014         0.100000   0.001000   0.050000   0.050000   25.000000  OUTLET    
SUB-1016         0.100000   0.001000   0.050000   0.050000   25.000000  OUTLET    
SUB-1018         0.100000   0.001000   0.050000   0.050000   25.000000  OUTLET    
SUB-1020         0.100000   0.001000   0.050000   0.050000   25.000000  OUTLET    
SUB-1022         0.100000   0.001000   0.050000   0.050000   25.000000  OUTLET    
SUB-1024         0.100000   0.001000   0.050000   0.050000   25.000000  OUTLET    
SUB-1028         0.100000   0.001000   0.050000   0.050000   25.000000  OUTLET    
SUB-1032         0.100000   0.001000   0.050000   0.050000   25.000000  OUTLET    
SUB-1034         0.100000   0.001000   0.050000   0.050000   25.000000  OUTLET    
SUB-1036         0.100000   0.001000   0.050000   0.050000   25.000000  OUTLET    
SUB-1038         0.100000   0.001000   0.050000   0.050000   25.000000  OUTLET    
SUB-1040         0.100000   0.001000   0.050000   0.050000   25.000000  OUTLET    
SUB-1042         0.100000   0.001000   0.050000   0.050000   25.000000  OUTLET    
SUB-1044         0.100000   0.001000   0.050000   0.050000   25.000000  OUTLET    
SUB-542          0.100000   0.001000   0.050000   0.050000   25.000000  OUTLET    
SUB-544          0.100000   0.001000   0.050000   0.050000   25.000000  OUTLET    
SUB-546          0.100000   0.001000   0.050000   0.050000   25.000000  OUTLET    
SUB-548          0.100000   0.001000   0.050000   0.050000   25.000000  OUTLET    
SUB-550          0.100000   0.001000   0.050000   0.050000   25.000000  OUTLET    
SUB-552          0.100000   0.001000   0.050000   0.050000   25.000000  OUTLET    
SUB-556          0.100000   0.001000   0.050000   0.050000   25.000000  OUTLET    
SUB-558          0.100000   0.001000   0.050000   0.050000   25.000000  OUTLET    
SUB-562          0.100000   0.001000   0.050000   0.050000   25.000000  OUTLET    
SUB-564          0.100000   0.001000   0.050000   0.050000   25.000000  OUTLET    
SUB-566          0.100000   0.001000   0.050000   0.050000   25.000000  OUTLET    
SUB-568          0.100000   0.001000   0.050000   0.050000   25.000000  OUTLET    
SUB-570          0.100000   0.001000   0.050000   0.050000   25.000000  OUTLET    
SUB-574          0.100000   0.001000   0.050000   0.050000   25.000000  OUTLET    
SUB-576          0.100000   0.001000   0.050000   0.050000   25.000000  OUTLET    
SUB-582          0.100000   0.001000   0.050000   0.050000   25.000000  OUTLET    
SUB-586          0.100000   0.001000   0.050000   0.050000   25.000000  OUTLET    
SUB-588          0.100000   0.001000   0.050000   0.050000   25.000000  OUTLET    
SUB-592          0.100000   0.001000   0.050000   0.050000   25.000000  OUTLET    
SUB-594          0.100000   0.001000   0.050000   0.050000   25.000000  OUTLET    
SUB-596          0.100000   0.001000   0.050000   0.050000   25.000000  OUTLET    
SUB-598          0.100000   0.001000   0.050000   0.050000   25.000000  OUTLET    
SUB-600          0.100000   0.001000   0.050000   0.050000   25.000000  OUTLET    
SUB-602          0.100000   0.001000   0.050000   0.050000   25.000000  OUTLET    
SUB-604          0.100000   0.001000   0.050000   0.050000   25.000000  OUTLET    
SUB-608          0.100000   0.001000   0.050000   0.050000   25.000000  OUTLET    
SUB-610          0.100000   0.001000   0.050000   0.050000   25.000000  OUTLET    
SUB-612          0.100000   0.001000   0.050000   0.050000   25.000000  OUTLET    
SUB-614          0.100000   0.001000   0.050000   0.050000   25.000000  OUTLET    
SUB-616          0.100000   0.001000   0.050000   0.050000   25.000000  OUTLET    
SUB-618          0.100000   0.001000   0.050000   0.050000   25.000000  OUTLET    
SUB-620          0.100000   0.001000   0.050000   0.050000   25.000000  OUTLET    
SUB-622          0.100000   0.001000   0.050000   0.050000   25.000000  OUTLET    
SUB-624          0.100000   0.001000   0.050000   0.050000   25.000000  OUTLET    
SUB-626          0.100000   0.001000   0.050000   0.050000   25.000000  OUTLET    
SUB-628          0.100000   0.001000   0.050000   0.050000   25.000000  OUTLET    
SUB-630          0.100000   0.001000   0.050000   0.050000   25.000000  OUTLET    
SUB-634          0.100000   0.001000   0.050000   0.050000   25.000000  OUTLET    
SUB-636          0.100000   0.001000   0.050000   0.050000   25.000000  OUTLET    
SUB-638          0.100000   0.001000   0.050000   0.050000   25.000000  OUTLET    
SUB-640          0.100000   0.001000   0.050000   0.050000   25.000000  OUTLET    
SUB-642          0.100000   0.001000   0.050000   0.050000   25.000000  OUTLET    
SUB-650          0.100000   0.001000   0.050000   0.050000   25.000000  OUTLET    
SUB-652          0.100000   0.001000   0.050000   0.050000   25.000000  OUTLET    
SUB-658          0.100000   0.001000   0.050000   0.050000   25.000000  OUTLET    
SUB-660          0.100000   0.001000   0.050000   0.050000   25.000000  OUTLET    
SUB-664          0.100000   0.001000   0.050000   0.050000   25.000000  OUTLET    
SUB-668          0.100000   0.001000   0.050000   0.050000   25.000000  OUTLET    
SUB-682          0.100000   0.001000   0.050000   0.050000   25.000000  OUTLET    
SUB-684          0.100000   0.001000   0.050000   0.050000   25.000000  OUTLET    
SUB-686          0.100000   0.001000   0.050000   0.050000   25.000000  OUTLET    
SUB-688          0.100000   0.001000   0.050000   0.050000   25.000000  OUTLET    
SUB-690          0.100000   0.001000   0.050000   0.050000   25.000000  OUTLET    
SUB-694          0.100000   0.001000   0.050000   0.050000   25.000000  OUTLET    
SUB-698          0.100000   0.001000   0.050000   0.050000   25.000000  OUTLET    
SUB-702          0.100000   0.001000   0.050000   0.050000   25.000000  OUTLET    
SUB-706          0.100000   0.001000   0.050000   0.050000   25.000000  OUTLET    
SUB-710          0.100000   0.001000   0.050000   0.050000   25.000000  OUTLET    
SUB-712          0.100000   0.001000   0.050000   0.050000   25.000000  OUTLET    
SUB-714          0.100000   0.001000   0.050000   0.050000   25.000000  OUTLET    
SUB-716          0.100000   0.001000   0.050000   0.050000   25.000000  OUTLET    
SUB-718          0.100000   0.001000   0.050000   0.050000   25.000000  OUTLET    
SUB-722          0.100000   0.001000   0.050000   0.050000   25.000000  OUTLET    
SUB-724          0.100000   0.001000   0.050000   0.050000   25.000000  OUTLET    
SUB-726          0.100000   0.001000   0.050000   0.050000   25.000000  OUTLET    
SUB-736          0.100000   0.001000   0.050000   0.050000   25.000000  OUTLET    
SUB-738          0.100000   0.001000   0.050000   0.050000   25.000000  OUTLET    
SUB-740          0.100000   0.001000   0.050000   0.050000   25.000000  OUTLET    
SUB-742          0.100000   0.001000   0.050000   0.050000   25.000000  OUTLET    
SUB-744          0.100000   0.001000   0.050000   0.050000   25.000000  OUTLET    
SUB-746          0.100000   0.001000   0.050000   0.050000   25.000000  OUTLET    
SUB-748          0.100000   0.001000   0.050000   0.050000   25.000000  OUTLET    
SUB-750          0.100000   0.001000   0.050000   0.050000   25.000000  OUTLET    
SUB-752          0.100000   0.001000   0.050000   0.050000   25.000000  OUTLET    
SUB-762          0.100000   0.001000   0.050000   0.050000   25.000000  OUTLET    
SUB-766          0.100000   0.001000   0.050000   0.050000   25.000000  OUTLET    
SUB-770          0.100000   0.001000   0.050000   0.050000   25.000000  OUTLET    
SUB-772          0.100000   0.001000   0.050000   0.050000   25.000000  OUTLET    
SUB-774          0.100000   0.001000   0.050000   0.050000   25.000000  OUTLET    
SUB-776          0.100000   0.001000   0.050000   0.050000   25.000000  OUTLET    
SUB-780          0.100000   0.001000   0.050000   0.050000   25.000000  OUTLET    
SUB-790          0.100000   0.001000   0.050000   0.050000   25.000000  OUTLET    
SUB-796          0.100000   0.001000   0.050000   0.050000   25.000000  OUTLET    
SUB-802          0.100000   0.001000   0.050000   0.050000   25.000000  OUTLET    
SUB-804          0.100000   0.001000   0.050000   0.050000   25.000000  OUTLET    
SUB-806          0.100000   0.001000   0.350000   0.100000   25.000000  OUTLET    
SUB-810          0.100000   0.001000   0.100000   0.350000   25.000000  OUTLET    
SUB-812          0.100000   0.001000   0.050000   0.050000   25.000000  OUTLET    
SUB-814          0.100000   0.001000   0.050000   0.050000   25.000000  OUTLET    
SUB-816          0.100000   0.001000   0.050000   0.050000   25.000000  OUTLET    
SUB-818          0.100000   0.001000   0.400000   0.200000   25.000000  OUTLET    
SUB-820          0.100000   0.001000   0.050000   0.050000   25.000000  OUTLET    
SUB-830          0.100000   0.001000   0.050000   0.050000   25.000000  OUTLET    
SUB-840          0.100000   0.001000   0.050000   0.050000   25.000000  OUTLET    
SUB-844          0.100000   0.001000   0.050000   0.050000   25.000000  OUTLET    
SUB-846          0.100000   0.001000   0.050000   0.050000   25.000000  OUTLET    
SUB-848          0.100000   0.001000   0.050000   0.050000   25.000000  OUTLET    
SUB-850          0.100000   0.001000   0.050000   0.050000   25.000000  OUTLET    
SUB-852          0.100000   0.001000   0.050000   0.050000   25.000000  OUTLET    
SUB-854          0.100000   0.001000   0.050000   0.050000   25.000000  OUTLET    
SUB-856          0.100000   0.001000   0.075000   0.350000   25.000000  OUTLET    
SUB-866          0.100000   0.001000   0.050000   0.050000   25.000000  OUTLET    
SUB-868          0.100000   0.001000   0.050000   0.050000   25.000000  OUTLET    
SUB-870          0.100000   0.001000   0.050000   0.050000   25.000000  OUTLET    
SUB-872          0.100000   0.001000   0.050000   0.050000   25.000000  OUTLET    
SUB-874          0.100000   0.001000   0.050000   0.050000   25.000000  OUTLET    
SUB-876          0.100000   0.001000   0.050000   0.050000   25.000000  OUTLET    
SUB-882          0.100000   0.001000   0.050000   0.050000   25.000000  OUTLET    
SUB-884          0.100000   0.001000   0.050000   0.050000   25.000000  OUTLET    
SUB-892          0.100000   0.001000   0.050000   0.050000   25.000000  OUTLET    
SUB-894          0.100000   0.001000   0.050000   0.050000   25.000000  OUTLET    
SUB-898          0.100000   0.001000   0.050000   0.050000   25.000000  OUTLET    
SUB-900          0.100000   0.001000   0.050000   0.050000   25.000000  OUTLET    
SUB-902          0.100000   0.001000   0.050000   0.050000   25.000000  OUTLET    
SUB-904          0.100000   0.001000   0.050000   0.050000   25.000000  OUTLET    
SUB-908          0.100000   0.001000   0.050000   0.050000   25.000000  OUTLET    
SUB-910          0.100000   0.001000   0.050000   0.050000   25.000000  OUTLET    
SUB-914          0.100000   0.001000   0.050000   0.050000   25.000000  OUTLET    
SUB-916          0.100000   0.001000   0.050000   0.050000   25.000000  OUTLET    
SUB-926          0.100000   0.001000   0.050000   0.050000   25.000000  OUTLET    
SUB-932          0.100000   0.001000   0.050000   0.050000   25.000000  OUTLET    
SUB-934          0.100000   0.001000   0.050000   0.050000   25.000000  OUTLET    
SUB-936          0.100000   0.001000   0.050000   0.050000   25.000000  OUTLET    
SUB-938          0.100000   0.001000   0.050000   0.050000   25.000000  OUTLET    
SUB-940          0.100000   0.001000   0.050000   0.050000   25.000000  OUTLET    
SUB-942          0.100000   0.001000   0.050000   0.050000   25.000000  OUTLET    
SUB-944          0.100000   0.001000   0.050000   0.050000   25.000000  OUTLET    
SUB-946          0.100000   0.001000   0.050000   0.050000   25.000000  OUTLET    
SUB-948          0.100000   0.001000   0.050000   0.050000   25.000000  OUTLET    
SUB-950          0.100000   0.001000   0.050000   0.050000   25.000000  OUTLET    
SUB-952          0.100000   0.001000   0.050000   0.050000   25.000000  OUTLET    
SUB-954          0.100000   0.001000   0.050000   0.050000   25.000000  OUTLET    
SUB-956          0.100000   0.001000   0.050000   0.050000   25.000000  OUTLET    
SUB-958          0.100000   0.001000   0.050000   0.050000   25.000000  OUTLET    
SUB-960          0.100000   0.001000   0.050000   0.050000   25.000000  OUTLET    
SUB-964          0.100000   0.001000   0.050000   0.050000   25.000000  OUTLET    
SUB-966          0.100000   0.001000   0.050000   0.050000   25.000000  OUTLET    
SUB-968          0.100000   0.001000   0.050000   0.050000   25.000000  OUTLET    
SUB-970          0.100000   0.001000   0.050000   0.050000   25.000000  OUTLET    
SUB-972          0.100000   0.001000   0.050000   0.050000   25.000000  OUTLET    
SUB-974          0.100000   0.001000   0.050000   0.050000   25.000000  OUTLET    
SUB-976          0.100000   0.001000   0.050000   0.050000   25.000000  OUTLET    
SUB-978          0.100000   0.001000   0.050000   0.050000   25.000000  OUTLET    
SUB-980          0.100000   0.001000   0.050000   0.050000   25.000000  OUTLET    
SUB-982          0.100000   0.001000   0.050000   0.050000   25.000000  OUTLET    
SUB-984          0.100000   0.001000   0.050000   0.050000   25.000000  OUTLET    
SUB-986          0.100000   0.001000   0.050000   0.050000   25.000000  OUTLET    
SUB-988          0.100000   0.001000   0.050000   0.050000   25.000000  OUTLET    
SUB-990          0.100000   0.001000   0.050000   0.050000   25.000000  OUTLET    
SUB-992          0.100000   0.001000   0.050000   0.050000   25.000000  OUTLET    
SUB-996          0.100000   0.001000   0.050000   0.050000   25.000000  OUTLET    

[INFILTRATION]
;;Subcatchment   CurveNum   HydCon     DryTime   
;;-------------- ---------- ---------- ----------
SUB-1000         83.500000  0.035000   75.000000 
SUB-1002         82.450000  0.153500   75.000000 
SUB-1004         89.500000  0.162000   75.000000 
SUB-1006         74.330000  0.153000   75.000000 
SUB-1008         90.760000  0.113800   75.000000 
SUB-1010         79.696970  0.088283   75.000000 
SUB-1012         92.200000  0.040000   75.000000 
SUB-1014         92.200000  0.040000   75.000000 
SUB-1016         92.200000  0.040000   75.000000 
SUB-1018         80.600000  0.120000   75.000000 
SUB-1020         80.600000  0.120000   75.000000 
SUB-1022         86.000000  0.016000   75.000000 
SUB-1024         88.800000  0.026000   75.000000 
SUB-1028         94.600000  0.074000   75.000000 
SUB-1032         91.900000  0.180000   75.000000 
SUB-1034         95.600000  0.016000   75.000000 
SUB-1036         80.575758  0.151515   75.000000 
SUB-1038         80.750000  0.150000   75.000000 
SUB-1040         79.070000  0.150000   75.000000 
SUB-1042         81.440000  0.144000   75.000000 
SUB-1044         91.150000  0.018000   75.000000 
SUB-542          80.130000  0.020300   75.000000 
SUB-544          92.690722  0.049072   75.000000 
SUB-546          83.071429  0.114694   75.000000 
SUB-548          80.520000  0.021200   75.000000 
SUB-550          85.550000  0.083000   75.000000 
SUB-552          80.000000  0.020000   75.000000 
SUB-556          81.200000  0.070800   75.000000 
SUB-558          89.630000  0.084800   75.000000 
SUB-562          82.267327  0.145644   75.000000 
SUB-564          74.330000  0.153000   75.000000 
SUB-566          90.858586  0.032727   75.000000 
SUB-568          84.650000  0.089000   75.000000 
SUB-570          90.551020  0.083673   75.000000 
SUB-574          85.390000  0.081500   75.000000 
SUB-576          88.860000  0.029200   75.000000 
SUB-582          85.250000  0.017000   75.000000 
SUB-586          95.210000  0.018600   75.000000 
SUB-588          80.707071  0.153535   75.000000 
SUB-592          76.880000  0.088000   75.000000 
SUB-594          83.000000  0.074400   75.000000 
SUB-596          81.646465  0.088283   75.000000 
SUB-598          90.257426  0.087129   75.000000 
SUB-600          78.460000  0.168000   75.000000 
SUB-602          91.780000  0.142000   75.000000 
SUB-604          83.750000  0.019000   75.000000 
SUB-608          94.868687  0.046061   75.000000 
SUB-610          89.212121  0.094848   75.000000 
SUB-612          79.090000  0.092600   75.000000 
SUB-614          90.180000  0.068000   75.000000 
SUB-616          85.100000  0.038800   75.000000 
SUB-618          90.565657  0.153535   75.000000 
SUB-620          86.430000  0.178000   75.000000 
SUB-622          81.440000  0.144000   75.000000 
SUB-624          86.000000  0.080000   75.000000 
SUB-626          75.440000  0.094000   75.000000 
SUB-628          85.571429  0.107143   75.000000 
SUB-630          64.888889  0.192424   75.000000 
SUB-634          80.750000  0.150000   75.000000 
SUB-636          94.870000  0.027800   75.000000 
SUB-638          91.443299  0.037113   75.000000 
SUB-640          86.202020  0.032525   75.000000 
SUB-642          90.760000  0.113800   75.000000 
SUB-650          91.050000  0.150000   75.000000 
SUB-652          87.090909  0.143434   75.000000 
SUB-658          80.180000  0.075000   75.000000 
SUB-660          94.520000  0.116000   75.000000 
SUB-664          85.970000  0.041700   75.000000 
SUB-668          81.150538  0.104301   75.000000 
SUB-682          86.100000  0.138000   75.000000 
SUB-684          89.820000  0.156000   75.000000 
SUB-686          85.485149  0.146535   75.000000 
SUB-688          79.070000  0.150000   75.000000 
SUB-690          90.100000  0.108400   75.000000 
SUB-694          84.534653  0.081584   75.000000 
SUB-698          76.760000  0.123000   75.000000 
SUB-702          75.260000  0.097000   75.000000 
SUB-706          86.900000  0.099800   75.000000 
SUB-710          82.282828  0.141414   75.000000 
SUB-712          80.390000  0.144400   75.000000 
SUB-714          82.680000  0.125400   75.000000 
SUB-716          83.545455  0.135354   75.000000 
SUB-718          95.190000  0.012400   75.000000 
SUB-722          88.000000  0.072800   75.000000 
SUB-724          92.010000  0.040000   75.000000 
SUB-726          86.570000  0.091000   75.000000 
SUB-736          85.910000  0.166000   75.000000 
SUB-738          82.386139  0.136634   75.000000 
SUB-740          93.610000  0.144000   75.000000 
SUB-742          91.050000  0.010600   75.000000 
SUB-744          81.940000  0.144000   75.000000 
SUB-746          80.575758  0.151515   75.000000 
SUB-748          87.336634  0.136634   75.000000 
SUB-750          78.656566  0.146465   75.000000 
SUB-752          98.000000  0.000000   75.000000 
SUB-762          83.306931  0.134653   75.000000 
SUB-766          94.820000  0.037400   75.000000 
SUB-770          93.720000  0.122000   75.000000 
SUB-772          92.387755  0.065918   75.000000 
SUB-774          87.792079  0.152475   75.000000 
SUB-776          51.000000  0.200000   75.000000 
SUB-780          89.960000  0.054100   75.000000 
SUB-790          94.300000  0.020000   75.000000 
SUB-796          79.891089  0.154455   75.000000 
SUB-802          85.580000  0.108000   75.000000 
SUB-804          61.747475  0.195960   75.000000 
SUB-806          80.653465  0.147525   75.000000 
SUB-810          78.840000  0.152000   75.000000 
SUB-812          91.000000  0.100000   75.000000 
SUB-814          79.989899  0.128283   75.000000 
SUB-816          94.670000  0.063800   75.000000 
SUB-818          51.000000  0.200000   75.000000 
SUB-820          91.210000  0.074000   75.000000 
SUB-830          51.000000  0.200000   75.000000 
SUB-840          77.510000  0.162000   75.000000 
SUB-844          77.300000  0.180000   75.000000 
SUB-846          77.300000  0.180000   75.000000 
SUB-848          78.750000  0.161000   75.000000 
SUB-850          81.890000  0.134000   75.000000 
SUB-852          74.500000  0.145000   75.000000 
SUB-854          79.600000  0.160000   75.000000 
SUB-856          80.948454  0.146392   75.000000 
SUB-866          97.260000  0.004000   75.000000 
SUB-868          91.000000  0.100000   75.000000 
SUB-870          96.150000  0.010000   75.000000 
SUB-872          77.300000  0.180000   75.000000 
SUB-874          86.000000  0.160000   75.000000 
SUB-876          79.600000  0.160000   75.000000 
SUB-882          81.440000  0.144000   75.000000 
SUB-884          82.800000  0.120000   75.000000 
SUB-892          91.000000  0.100000   75.000000 
SUB-894          91.000000  0.100000   75.000000 
SUB-898          91.000000  0.100000   75.000000 
SUB-900          91.000000  0.100000   75.000000 
SUB-902          91.000000  0.100000   75.000000 
SUB-904          91.000000  0.100000   75.000000 
SUB-908          91.000000  0.100000   75.000000 
SUB-910          91.000000  0.100000   75.000000 
SUB-914          91.000000  0.100000   75.000000 
SUB-916          91.000000  0.100000   75.000000 
SUB-926          87.000000  0.060000   75.000000 
SUB-932          83.000000  0.020000   75.000000 
SUB-934          80.000000  0.020000   75.000000 
SUB-936          92.110000  0.019600   75.000000 
SUB-938          93.970000  0.022800   75.000000 
SUB-940          92.900000  0.031000   75.000000 
SUB-942          89.150000  0.019000   75.000000 
SUB-944          84.800000  0.072000   75.000000 
SUB-946          91.750000  0.079000   75.000000 
SUB-948          86.700000  0.059000   75.000000 
SUB-950          92.150000  0.019000   75.000000 
SUB-952          88.650000  0.026000   75.000000 
SUB-954          88.350000  0.018000   75.000000 
SUB-956          93.050000  0.055800   75.000000 
SUB-958          93.050000  0.055800   75.000000 
SUB-960          91.750000  0.079000   75.000000 
SUB-964          89.643564  0.095644   75.000000 
SUB-966          89.643564  0.095644   75.000000 
SUB-968          93.130000  0.079800   75.000000 
SUB-970          93.130000  0.079800   75.000000 
SUB-972          83.000000  0.090000   75.000000 
SUB-974          84.200000  0.082000   75.000000 
SUB-976          87.000000  0.180000   75.000000 
SUB-978          73.900000  0.105000   75.000000 
SUB-980          82.000000  0.110000   75.000000 
SUB-982          74.300000  0.300000   75.000000 
SUB-984          87.140000  0.089500   75.000000 
SUB-986          85.818182  0.077273   75.000000 
SUB-988          85.970000  0.069500   75.000000 
SUB-990          78.450000  0.169500   75.000000 
SUB-992          83.600000  0.090000   75.000000 
SUB-996          3.0        0.5        4         

[JUNCTIONS]
;;               Invert     Max.       Init.      Surcharge  Ponded    
;;Name           Elev.      Depth      Depth      Depth      Area      
;;-------------- ---------- ---------- ---------- ---------- ----------
JCT-100          4432.050000 1.763000   0.000000   0.000000   0.000000  
JCT-1000         4445.036600 4.000021   0.000000   0.000000   0.000000  
; New Junction
JCT-1006         4445.756000 7.214000   0.000000   0.000000   0.000000  
JCT-1008         4449.630000 4.000000   0.000000   0.000000   0.000000  
JCT-1012         4441.100100 3.999998   0.000000   0.000000   0.000000  
JCT-1014         4443.396000 4.000000   0.000000   0.000000   0.000000  
; New Junction
JCT-1018         4446.000000 6.317000   0.000000   0.000000   0.000000  
JCT-102          4431.905000 1.979000   0.000000   0.000000   0.000000  
; New Junction
JCT-1020         4440.666000 4.434000   0.000000   0.000000   0.000000  
; New Junction
JCT-1024         4447.192000 1.516000   0.000000   0.000000   0.000000  
; New Junction
JCT-1028         4491.300000 4.000000   0.000000   0.000000   0.000000  
; New Junction
JCT-1036         4493.000000 8.202000   0.000000   0.000000   0.000000  
; New Junction
JCT-1038         4465.500000 6.500000   0.000000   0.000000   0.000000  
JCT-104          4429.213000 2.366000   0.000000   0.000000   0.000000  
; New Junction
JCT-1040         4483.000000 4.000000   0.000000   0.000000   0.000000  
; New Junction
JCT-1052         4448.620000 2.713500   0.000000   0.000000   0.000000  
JCT-1056         4454.207500 5.792500   0.000000   0.000000   0.000000  
JCT-1058         4441.100000 4.000000   0.000000   0.000000   0.000000  
JCT-106          4428.774000 3.298000   0.000000   0.000000   0.000000  
; New Junction
JCT-1060         4472.220000 4.002000   0.000000   0.000000   0.000000  
; New Junction
JCT-1062         4478.850000 4.150000   0.000000   0.000000   0.000000  
JCT-1064         4453.900000 4.000000   0.000000   0.000000   0.000000  
JCT-1066         4444.052000 4.000000   0.000000   0.000000   0.000000  
JCT-1068         4442.740000 4.000000   0.000000   0.000000   0.000000  
JCT-1070         4447.005400 3.999971   0.000000   0.000000   0.000000  
JCT-1072         4459.690000 5.422000   0.000000   0.000000   0.000000  
JCT-1074         4458.460000 6.653000   0.000000   0.000000   0.000000  
JCT-1076         4456.105000 7.045000   0.000000   0.000000   0.000000  
JCT-1078         4455.184500 7.965500   0.000000   0.000000   0.000000  
; New Junction
JCT-1080         4463.737800 3.999993   0.000000   0.000000   0.000000  
; New Junction
JCT-1082         4464.000000 5.378418   0.000000   0.000000   0.000000  
JCT-1084         4457.343000 4.872000   0.000000   0.000000   0.000000  
JCT-1086         4445.690000 4.000000   0.000000   0.000000   0.000000  
JCT-1088         4433.550000 4.000000   0.000000   0.000000   0.000000  
JCT-1092         4466.360000 4.000000   0.000000   0.000000   0.000000  
JCT-1094         4498.750000 5.077000   0.000000   0.000000   0.000000  
JCT-1096         4489.600000 12.590000  0.000000   0.000000   0.000000  
JCT-1098         4490.312500 4.000000   0.000000   0.000000   0.000000  
; New Junction
JCT-1100         4446.670000 3.290000   0.000000   0.000000   0.000000  
; New Junction
JCT-1102         4447.333000 4.000000   0.000000   0.000000   0.000000  
; New Junction
JCT-1104         4473.026000 4.000000   0.000000   0.000000   0.000000  
JCT-1108         4489.000000 4.000000   0.000000   0.000000   0.000000  
; New Junction
JCT-1110         4485.006000 4.054000   0.000000   0.000000   0.000000  
; New Junction
JCT-1112         4480.470000 4.000000   0.000000   0.000000   0.000000  
; New Junction
JCT-1116         4473.580000 4.000000   0.000000   0.000000   0.000000  
JCT-112          4448.260000 4.915000   0.000000   0.000000   0.000000  
; New Junction
JCT-1120         4457.000000 7.500000   0.000000   0.000000   0.000000  
; New Junction
JCT-1122         4483.510000 4.000000   0.000000   0.000000   0.000000  
; New Junction
JCT-1126         4563.204000 4.276000   0.000000   0.000000   0.000000  
JCT-114          4447.320000 4.151000   0.000000   0.000000   0.000000  
JCT-1154         4466.000000 6.000000   0.000000   0.000000   0.000000  
; New Junction
JCT-1158         4492.000000 8.200000   0.000000   0.000000   0.000000  
JCT-116          4447.148000 3.382000   0.000000   0.000000   0.000000  
JCT-1160         4519.000000 5.000000   0.000000   0.000000   0.000000  
JCT-1162         4489.980000 4.000000   0.000000   0.000000   0.000000  
JCT-1164         4634.865000 5.000000   0.000000   0.000000   0.000000  
JCT-1166         4634.234000 5.000000   0.000000   0.000000   0.000000  
JCT-1168         4633.660000 5.000000   0.000000   0.000000   0.000000  
JCT-1170         4633.085000 5.000000   0.000000   0.000000   0.000000  
JCT-1172         4632.550000 5.000000   0.000000   0.000000   0.000000  
JCT-1174         4632.080000 5.000000   0.000000   0.000000   0.000000  
JCT-1176         4631.160000 5.000000   0.000000   0.000000   0.000000  
JCT-1178         4629.605000 5.000000   0.000000   0.000000   0.000000  
JCT-118          4447.940000 4.294000   0.000000   0.000000   0.000000  
JCT-1182         4560.178700 5.000000   0.000000   0.000000   0.000000  
JCT-1184         4559.697200 5.000000   0.000000   0.000000   0.000000  
JCT-1186         4559.302000 5.000000   0.000000   0.000000   0.000000  
JCT-1188         4558.892200 5.000000   0.000000   0.000000   0.000000  
JCT-1190         4558.567900 5.000000   0.000000   0.000000   0.000000  
JCT-1192         4558.273700 5.000000   0.000000   0.000000   0.000000  
JCT-1194         4557.839900 5.000000   0.000000   0.000000   0.000000  
JCT-1196         4557.528000 5.000000   0.000000   0.000000   0.000000  
JCT-1198         4557.172500 5.000000   0.000000   0.000000   0.000000  
JCT-120          4446.819000 2.099000   0.000000   0.000000   0.000000  
JCT-1200         4556.908600 5.000000   0.000000   0.000000   0.000000  
JCT-1202         4556.403300 5.000000   0.000000   0.000000   0.000000  
JCT-1204         4555.790000 5.000000   0.000000   0.000000   0.000000  
JCT-1206         4555.265600 6.000000   0.000000   0.000000   0.000000  
JCT-1208         4489.032000 5.000000   0.000000   0.000000   0.000000  
JCT-1210         4487.367000 5.000000   0.000000   0.000000   0.000000  
JCT-1212         4484.178000 7.000000   0.000000   0.000000   0.000000  
JCT-1214         4481.548000 5.000000   0.000000   0.000000   0.000000  
JCT-1216         4477.350000 5.000000   0.000000   0.000000   0.000000  
JCT-1218         4511.950200 4.999995   0.000000   0.000000   0.000000  
JCT-122          4446.126000 1.495000   0.000000   0.000000   0.000000  
JCT-1220         4509.730000 5.000000   0.000000   0.000000   0.000000  
JCT-1222         4506.980000 6.680000   0.000000   0.000000   0.000000  
JCT-1224         4505.310000 6.000000   0.000000   0.000000   0.000000  
JCT-1226         4500.710000 5.000000   0.000000   0.000000   0.000000  
JCT-1228         4499.310000 5.000000   0.000000   0.000000   0.000000  
JCT-1230         4496.455000 4.545000   0.000000   0.000000   0.000000  
JCT-1232         4841.674800 5.000005   0.000000   0.000000   0.000000  
JCT-1234         4840.145600 5.000000   0.000000   0.000000   0.000000  
JCT-1236         4838.726100 5.000000   0.000000   0.000000   0.000000  
JCT-1238         4838.089400 5.000000   0.000000   0.000000   0.000000  
JCT-124          4442.879000 2.498000   0.000000   0.000000   0.000000  
; New Junction
JCT-1240         4629.201500 4.999500   0.000000   0.000000   0.000000  
; New Junction
JCT-1242         4631.750000 5.000000   0.000000   0.000000   0.000000  
; New Junction
JCT-1244         4637.500000 4.000000   0.000000   0.000000   0.000000  
; New Junction
JCT-1246         4630.100000 5.000000   0.000000   0.000000   0.000000  
; New Junction
JCT-1248         4638.340000 4.000000   0.000000   0.000000   0.000000  
; New Junction
JCT-1250         4556.705000 5.000000   0.000000   0.000000   0.000000  
; New Junction
JCT-1252         4502.710000 5.000000   0.000000   0.000000   0.000000  
; New Junction
JCT-1256         4504.210000 5.000000   0.000000   0.000000   0.000000  
; New Junction
JCT-1258         4510.000000 4.000000   0.000000   0.000000   0.000000  
JCT-126          4441.762000 3.770000   0.000000   0.000000   0.000000  
; New Junction
JCT-1260         4493.376000 5.000000   0.000000   0.000000   0.000000  
; New Junction
JCT-1264         4491.597000 5.000000   0.000000   0.000000   0.000000  
; New Junction
JCT-1266         4489.950000 5.000000   0.000000   0.000000   0.000000  
; New Junction
JCT-1268         4517.540000 4.000000   0.000000   0.000000   0.000000  
; New Junction
JCT-1270         4633.430000 5.000000   0.000000   0.000000   0.000000  
; New Junction
JCT-1276         4459.300000 6.000000   0.000000   0.000000   0.000000  
; New Junction
JCT-1280         4624.222000 5.778000   0.000000   0.000000   0.000000  
; New Junction
JCT-1282         4552.520000 6.000000   0.000000   0.000000   0.000000  
JCT-1284         4524.400000 5.000000   0.000000   0.000000   0.000000  
; New Junction
JCT-1298         4453.500000 4.500000   0.000000   0.000000   0.000000  
; New Junction
JCT-1300         4839.297500 4.000000   0.000000   0.000000   0.000000  
JCT-138          4441.616000 3.916000   0.000000   0.000000   0.000000  
JCT-14           4441.328000 2.294000   0.000000   0.000000   0.000000  
JCT-142          4439.622000 3.657000   0.000000   0.000000   0.000000  
JCT-144          4768.110000 4.745957   0.000000   0.000000   0.000000  
JCT-146          4684.000000 13.068359  0.000000   0.000000   0.000000  
JCT-148          4476.867000 5.303000   0.000000   0.000000   0.000000  
JCT-150          4476.566000 4.954000   0.000000   0.000000   0.000000  
JCT-154          4457.398000 3.025000   0.000000   0.000000   0.000000  
JCT-16           4441.236500 2.173500   0.000000   0.000000   0.000000  
JCT-160          4447.189000 5.634000   0.000000   0.000000   0.000000  
JCT-162          4447.555000 4.949000   0.000000   0.000000   0.000000  
JCT-164          4451.310000 5.690000   0.000000   0.000000   0.000000  
JCT-166          4450.524000 6.476000   0.000000   0.000000   0.000000  
JCT-172          4443.192000 5.508000   0.000000   0.000000   0.000000  
JCT-174          4443.118900 5.550100   0.000000   0.000000   0.000000  
JCT-176          4437.685000 3.610000   0.000000   0.000000   0.000000  
JCT-178          4437.581300 3.713700   0.000000   0.000000   0.000000  
JCT-18           4440.836000 2.296000   0.000000   0.000000   0.000000  
JCT-180          4432.800000 4.062000   0.000000   0.000000   0.000000  
JCT-182          4431.877000 4.985000   0.000000   0.000000   0.000000  
JCT-184          4428.588000 7.272000   0.000000   0.000000   0.000000  
JCT-186          4428.000000 7.860000   0.000000   0.000000   0.000000  
JCT-188          4421.767000 6.315000   0.000000   0.000000   0.000000  
JCT-190          4419.500000 8.600000   0.000000   0.000000   0.000000  
JCT-192          4423.410900 6.589100   0.000000   0.000000   0.000000  
JCT-194          4423.446000 9.554000   0.000000   0.000000   0.000000  
JCT-196          4412.685000 4.041000   0.000000   0.000000   0.000000  
JCT-20           4440.517000 3.263000   0.000000   0.000000   0.000000  
JCT-200          4428.168000 4.752000   0.000000   0.000000   0.000000  
JCT-202          4428.147900 4.772100   0.000000   0.000000   0.000000  
JCT-204          4430.739000 2.370000   0.000000   0.000000   0.000000  
JCT-206          4430.760000 2.349000   0.000000   0.000000   0.000000  
JCT-208          4441.142000 1.970000   0.000000   0.000000   0.000000  
JCT-210          4440.954000 2.524000   0.000000   0.000000   0.000000  
JCT-214          4440.416000 2.044000   0.000000   0.000000   0.000000  
JCT-218          4436.797000 3.386000   0.000000   0.000000   0.000000  
JCT-22           4444.865800 1.843200   0.000000   0.000000   0.000000  
JCT-232          4490.790000 2.572000   0.000000   0.000000   0.000000  
JCT-234          4488.850000 4.512000   0.000000   0.000000   0.000000  
JCT-236          4483.938000 6.726000   0.000000   0.000000   0.000000  
JCT-238          4484.114000 3.556000   0.000000   0.000000   0.000000  
JCT-24           4444.203000 0.120000   0.000000   0.000000   0.000000  
JCT-240          4483.268000 3.790000   0.000000   0.000000   0.000000  
JCT-242          4482.417000 4.610000   0.000000   0.000000   0.000000  
JCT-244          4473.931000 1.069000   0.000000   0.000000   0.000000  
JCT-246          4473.750000 1.250000   0.000000   0.000000   0.000000  
JCT-248          4475.592000 1.053000   0.000000   0.000000   0.000000  
JCT-250          4475.491000 1.509000   0.000000   0.000000   0.000000  
JCT-252          4475.833000 1.167000   0.000000   0.000000   0.000000  
JCT-254          4475.392000 1.608000   0.000000   0.000000   0.000000  
JCT-256          4480.000000 3.521000   0.000000   0.000000   0.000000  
JCT-258          4478.354000 1.896000   0.000000   0.000000   0.000000  
JCT-26           4445.012000 2.335000   0.000000   0.000000   0.000000  
JCT-260          4477.800000 3.951000   0.000000   0.000000   0.000000  
JCT-262          4477.234000 4.201000   0.000000   0.000000   0.000000  
JCT-264          4475.841000 5.203000   0.000000   0.000000   0.000000  
JCT-266          4475.139000 5.747000   0.000000   0.000000   0.000000  
JCT-268          4477.394000 6.459000   0.000000   0.000000   0.000000  
JCT-270          4477.326000 6.387000   0.000000   0.000000   0.000000  
JCT-272          4475.112000 7.434000   0.000000   0.000000   0.000000  
JCT-274          4474.988000 8.390000   0.000000   0.000000   0.000000  
JCT-276          4477.812000 7.027000   0.000000   0.000000   0.000000  
JCT-278          4477.570000 6.881000   0.000000   0.000000   0.000000  
JCT-28           4444.906900 2.163100   0.000000   0.000000   0.000000  
JCT-280          4467.183000 3.069000   0.000000   0.000000   0.000000  
JCT-282          4466.539000 3.528000   0.000000   0.000000   0.000000  
JCT-286          4425.481600 2.889400   0.000000   0.000000   0.000000  
JCT-288          4425.588000 3.620000   0.000000   0.000000   0.000000  
JCT-298          4454.736000 3.947000   0.000000   0.000000   0.000000  
JCT-30           4444.144000 2.493000   0.000000   0.000000   0.000000  
JCT-300          4454.260000 4.423000   0.000000   0.000000   0.000000  
JCT-302          4458.620000 5.205000   0.000000   0.000000   0.000000  
JCT-304          4458.844000 4.981000   0.000000   0.000000   0.000000  
JCT-306          4459.292000 7.650000   0.000000   0.000000   0.000000  
JCT-308          4459.279000 7.707000   0.000000   0.000000   0.000000  
JCT-310          4462.080000 4.250000   0.000000   0.000000   0.000000  
JCT-312          4461.674000 3.918000   0.000000   0.000000   0.000000  
JCT-314          4463.094000 3.053000   0.000000   0.000000   0.000000  
JCT-316          4462.905000 4.823000   0.000000   0.000000   0.000000  
JCT-318          4466.153000 2.132000   0.000000   0.000000   0.000000  
JCT-32           4443.413000 2.208000   0.000000   0.000000   0.000000  
JCT-320          4465.311000 2.974000   0.000000   0.000000   0.000000  
JCT-322          4462.682000 4.157000   0.000000   0.000000   0.000000  
JCT-324          4462.976000 4.381000   0.000000   0.000000   0.000000  
JCT-326          4466.999000 4.425000   0.000000   0.000000   0.000000  
JCT-328          4466.498000 4.540000   0.000000   0.000000   0.000000  
JCT-330          4463.115000 1.704000   0.000000   0.000000   0.000000  
JCT-332          4462.729000 2.285000   0.000000   0.000000   0.000000  
JCT-338          4472.037000 7.006000   0.000000   0.000000   0.000000  
JCT-34           4442.872000 1.419000   0.000000   0.000000   0.000000  
JCT-340          4471.395000 7.749000   0.000000   0.000000   0.000000  
JCT-342          4451.541000 3.722000   0.000000   0.000000   0.000000  
JCT-344          4449.651000 2.154000   0.000000   0.000000   0.000000  
JCT-346          4482.513000 3.277000   0.000000   0.000000   0.000000  
JCT-348          4482.332000 3.458000   0.000000   0.000000   0.000000  
JCT-350          4485.559000 1.858000   0.000000   0.000000   0.000000  
JCT-352          4485.279000 2.138000   0.000000   0.000000   0.000000  
JCT-354          4484.509000 5.491000   0.000000   0.000000   0.000000  
JCT-36           4442.638000 1.522000   0.000000   0.000000   0.000000  
JCT-360          4483.821000 5.569000   0.000000   0.000000   0.000000  
JCT-362          4480.185000 2.853000   0.000000   0.000000   0.000000  
JCT-364          4477.943000 2.726000   0.000000   0.000000   0.000000  
JCT-376          4446.327000 2.490000   0.000000   0.000000   0.000000  
JCT-38           4442.374000 2.306000   0.000000   0.000000   0.000000  
JCT-386          4447.567000 2.492000   0.000000   0.000000   0.000000  
JCT-390          4448.634000 1.438000   0.000000   0.000000   0.000000  
JCT-392          4448.203000 1.920000   0.000000   0.000000   0.000000  
JCT-394          4455.765000 4.615000   0.000000   0.000000   0.000000  
JCT-398          4456.546000 5.143000   0.000000   0.000000   0.000000  
JCT-40           4442.257000 2.339000   0.000000   0.000000   0.000000  
JCT-404          4459.199000 5.389000   0.000000   0.000000   0.000000  
JCT-408          4467.233000 5.267000   0.000000   0.000000   0.000000  
JCT-42           4440.334400 2.545600   0.000000   0.000000   0.000000  
JCT-434          4456.295000 2.765000   0.000000   0.000000   0.000000  
JCT-436          4455.662000 3.986000   0.000000   0.000000   0.000000  
JCT-44           4440.220000 2.311000   0.000000   0.000000   0.000000  
JCT-442          4470.042000 0.978000   0.000000   0.000000   0.000000  
JCT-444          4469.755000 1.355000   0.000000   0.000000   0.000000  
JCT-446          4474.000000 2.346600   0.000000   0.000000   0.000000  
JCT-448          4473.175800 1.520200   0.000000   0.000000   0.000000  
JCT-450          4476.065000 2.681000   0.000000   0.000000   0.000000  
JCT-452          4475.174000 2.073000   0.000000   0.000000   0.000000  
JCT-454          4482.013200 2.503800   0.000000   0.000000   0.000000  
JCT-456          4481.921300 1.876700   0.000000   0.000000   0.000000  
JCT-458          4482.104000 1.076000   0.000000   0.000000   0.000000  
JCT-46           4440.044400 2.322600   0.000000   0.000000   0.000000  
JCT-460          4482.079000 2.249000   0.000000   0.000000   0.000000  
JCT-464          4482.169000 3.325000   0.000000   0.000000   0.000000  
JCT-470          4463.878000 2.409000   0.000000   0.000000   0.000000  
JCT-472          4461.667000 5.333000   0.000000   0.000000   0.000000  
JCT-474          4460.750000 4.194000   0.000000   0.000000   0.000000  
JCT-476          4457.602000 2.926000   0.000000   0.000000   0.000000  
JCT-478          4452.283000 5.786000   0.000000   0.000000   0.000000  
JCT-48           4439.236000 2.670000   0.000000   0.000000   0.000000  
JCT-480          4451.716000 2.421000   0.000000   0.000000   0.000000  
JCT-482          4450.626000 1.994000   0.000000   0.000000   0.000000  
JCT-484          4450.392000 1.707000   0.000000   0.000000   0.000000  
JCT-486          4449.750000 1.069000   0.000000   0.000000   0.000000  
JCT-488          4449.467000 1.296000   0.000000   0.000000   0.000000  
JCT-490          4446.750000 1.155000   0.000000   0.000000   0.000000  
JCT-492          4446.500000 1.725000   0.000000   0.000000   0.000000  
JCT-50           4437.790000 2.224000   0.000000   0.000000   0.000000  
JCT-506          4469.636000 1.486000   0.000000   0.000000   0.000000  
JCT-508          4468.977000 1.718000   0.000000   0.000000   0.000000  
JCT-510          4453.535000 2.863000   0.000000   0.000000   0.000000  
JCT-512          4451.218000 2.684000   0.000000   0.000000   0.000000  
JCT-514          4448.287000 4.933000   0.000000   0.000000   0.000000  
JCT-516          4445.829000 2.320000   0.000000   0.000000   0.000000  
JCT-522          4433.907000 2.584000   0.000000   0.000000   0.000000  
JCT-524          4433.746000 2.745000   0.000000   0.000000   0.000000  
JCT-530          4441.440000 5.165000   0.000000   0.000000   0.000000  
JCT-532          4441.364000 5.241000   0.000000   0.000000   0.000000  
JCT-534          4453.689000 4.516000   0.000000   0.000000   0.000000  
JCT-536          4453.588000 4.508000   0.000000   0.000000   0.000000  
; New Junction
JCT-542          4636.375800 4.624200   0.000000   0.000000   0.000000  
; New Junction
JCT-544          4601.205100 3.999978   0.000000   0.000000   0.000000  
; New Junction
JCT-546          4588.737800 3.999993   0.000000   0.000000   0.000000  
; New Junction
JCT-548          4572.330000 4.003496   0.000000   0.000000   0.000000  
; New Junction
JCT-552          4538.540000 4.000527   0.000000   0.000000   0.000000  
; New Junction
JCT-554          4534.280000 3.995879   0.000000   0.000000   0.000000  
; New Junction
JCT-556          4510.280000 9.950000   0.000000   0.000000   0.000000  
JCT-560          4793.000000 15.617188  0.000000   0.000000   0.000000  
JCT-562          4796.700000 4.698926   0.000000   0.000000   0.000000  
JCT-566          4753.110000 3.997910   0.000000   0.000000   0.000000  
; New Junction
JCT-568          4780.000000 4.000000   0.000000   0.000000   0.000000  
JCT-570          4780.000000 9.916016   0.000000   0.000000   0.000000  
; New Junction
JCT-572          4435.592000 5.115000   0.000000   0.000000   0.000000  
; New Junction
JCT-574          4433.834000 4.828000   0.000000   0.000000   0.000000  
; New Junction
JCT-576          4431.250000 5.626000   0.000000   0.000000   0.000000  
; New Junction
JCT-578          4429.870000 4.059000   0.000000   0.000000   0.000000  
JCT-58           4448.910000 3.590000   0.000000   0.000000   0.000000  
JCT-580          4463.557000 6.492000   0.000000   0.000000   0.000000  
JCT-582          4465.941000 3.698000   0.000000   0.000000   0.000000  
JCT-584          4465.465000 4.668000   0.000000   0.000000   0.000000  
JCT-586          4463.400000 4.993555   0.000000   0.000000   0.000000  
JCT-588          4463.250000 5.471680   0.000000   0.000000   0.000000  
; New Junction
JCT-592          4697.010000 3.995371   0.000000   0.000000   0.000000  
; New Junction
JCT-594          4697.160000 4.173496   0.000000   0.000000   0.000000  
; New Junction
JCT-596          4586.000000 5.425293   0.000000   0.000000   0.000000  
JCT-598          4507.650000 8.972559   0.000000   0.000000   0.000000  
JCT-60           4446.917000 1.000000   0.000000   0.000000   0.000000  
JCT-600          4506.370000 6.315059   0.000000   0.000000   0.000000  
JCT-602          4501.139600 4.000048   0.000000   0.000000   0.000000  
JCT-606          4487.290000 7.350000   0.000000   0.000000   0.000000  
JCT-608          4480.000000 6.770000   0.000000   0.000000   0.000000  
; New Junction
JCT-612          4479.000000 4.813965   0.000000   0.000000   0.000000  
JCT-614          4655.340000 3.998867   0.000000   0.000000   0.000000  
JCT-62           4469.432000 1.257000   0.000000   0.000000   0.000000  
JCT-620          4556.910000 4.003574   0.000000   0.000000   0.000000  
JCT-622          4535.500000 10.321289  0.000000   0.000000   0.000000  
JCT-624          4531.650000 4.000879   0.000000   0.000000   0.000000  
JCT-628          4512.050000 9.165332   0.000000   0.000000   0.000000  
JCT-632          4569.380000 4.000859   0.000000   0.000000   0.000000  
JCT-636          4563.800000 4.003223   0.000000   0.000000   0.000000  
; New Junction
JCT-638          4559.538000 4.000086   0.000000   0.000000   0.000000  
JCT-64           4468.968000 1.693000   0.000000   0.000000   0.000000  
; New Junction
JCT-640          4617.940000 3.997012   0.000000   0.000000   0.000000  
JCT-642          4660.920000 3.996016   0.000000   0.000000   0.000000  
JCT-658          4527.057600 4.000017   0.000000   0.000000   0.000000  
JCT-66           4463.980000 1.523000   0.000000   0.000000   0.000000  
JCT-662          4788.870000 3.999141   0.000000   0.000000   0.000000  
JCT-664          4769.180000 4.004082   0.000000   0.000000   0.000000  
JCT-666          4638.250000 5.000000   0.000000   0.000000   0.000000  
JCT-68           4463.827000 1.340000   0.000000   0.000000   0.000000  
; New Junction
JCT-680          4533.298000 15.476414  0.000000   0.000000   0.000000  
JCT-692          4510.000000 4.000000   0.000000   0.000000   0.000000  
JCT-698          4677.980000 4.000000   0.000000   0.000000   0.000000  
JCT-70           4463.546000 1.484000   0.000000   0.000000   0.000000  
; New Junction
JCT-702          4561.000000 15.660000  0.000000   0.000000   0.000000  
JCT-708          4812.820000 4.000000   0.000000   0.000000   0.000000  
JCT-716          4854.490000 4.000000   0.000000   0.000000   0.000000  
JCT-718          4860.720000 4.000000   0.000000   0.000000   0.000000  
JCT-72           4464.088000 1.760000   0.000000   0.000000   0.000000  
JCT-724          4537.560000 4.000000   0.000000   0.000000   0.000000  
JCT-726          4521.810000 4.000000   0.000000   0.000000   0.000000  
JCT-728          4453.930000 4.683000   0.000000   0.000000   0.000000  
JCT-738          4523.450000 3.998730   0.000000   0.000000   0.000000  
JCT-74           4460.269000 3.142000   0.000000   0.000000   0.000000  
JCT-740          4518.200000 3.999707   0.000000   0.000000   0.000000  
JCT-750          4514.260000 4.002695   0.000000   0.000000   0.000000  
JCT-752          4519.180000 4.004082   0.000000   0.000000   0.000000  
JCT-758          4530.670000 3.996992   0.000000   0.000000   0.000000  
JCT-76           4454.690000 2.316000   0.000000   0.000000   0.000000  
JCT-762          4481.000000 6.750977   0.000000   0.000000   0.000000  
JCT-764          4492.000000 9.202148   0.000000   0.000000   0.000000  
; New Junction
JCT-768          4468.000000 4.000000   0.000000   0.000000   0.000000  
JCT-772          4536.240000 4.004141   0.000000   0.000000   0.000000  
JCT-774          4514.590000 4.000000   0.000000   0.000000   0.000000  
JCT-776          4499.830000 3.997148   0.000000   0.000000   0.000000  
JCT-778          4539.200000 3.997266   0.000000   0.000000   0.000000  
; New Junction
JCT-780          4790.670000 9.420000   0.000000   0.000000   0.000000  
JCT-784          4788.210000 4.000000   0.000000   0.000000   0.000000  
JCT-828          4476.000000 4.204590   0.000000   0.000000   0.000000  
JCT-84           4447.864000 3.374000   0.000000   0.000000   0.000000  
; New Junction
JCT-842          4766.000000 4.000000   0.000000   0.000000   0.000000  
JCT-844          4503.440000 4.000000   0.000000   0.000000   0.000000  
; New Junction
JCT-852          4469.461000 12.712000  0.000000   0.000000   0.000000  
JCT-86           4446.290000 3.191000   0.000000   0.000000   0.000000  
JCT-88           4446.143000 3.774000   0.000000   0.000000   0.000000  
JCT-896          4480.183000 12.000000  0.000000   0.000000   0.000000  
JCT-90           4443.258000 3.597000   0.000000   0.000000   0.000000  
JCT-900          4480.137000 12.000000  0.000000   0.000000   0.000000  
JCT-904          4454.248000 3.879000   0.000000   0.000000   0.000000  
JCT-910          4466.690400 4.000030   0.000000   0.000000   0.000000  
JCT-912          4465.378400 4.000018   0.000000   0.000000   0.000000  
JCT-914          4461.440900 4.000018   0.000000   0.000000   0.000000  
JCT-92           4440.000000 3.232000   0.000000   0.000000   0.000000  
; New Junction
JCT-920          4459.150000 6.290000   0.000000   0.000000   0.000000  
JCT-924          4459.060000 4.000000   0.000000   0.000000   0.000000  
JCT-926          4455.723000 5.312000   0.000000   0.000000   0.000000  
JCT-928          4453.738000 5.514000   0.000000   0.000000   0.000000  
JCT-930          4452.352000 4.735000   0.000000   0.000000   0.000000  
JCT-932          4450.800000 7.000000   0.000000   0.000000   0.000000  
JCT-934          4450.300000 7.550000   0.000000   0.000000   0.000000  
JCT-936          4449.560000 6.780000   0.000000   0.000000   0.000000  
JCT-938          4440.350000 7.579000   0.000000   0.000000   0.000000  
JCT-94           4439.630000 1.523000   0.000000   0.000000   0.000000  
JCT-940          4439.750000 7.109000   0.000000   0.000000   0.000000  
JCT-942          4454.960000 3.590000   0.000000   0.000000   0.000000  
JCT-944          4454.530000 3.690000   0.000000   0.000000   0.000000  
JCT-946          4459.032500 5.487500   0.000000   0.000000   0.000000  
JCT-948          4457.980000 5.156000   0.000000   0.000000   0.000000  
JCT-950          4452.875000 6.222000   0.000000   0.000000   0.000000  
JCT-952          4452.420000 5.491000   0.000000   0.000000   0.000000  
JCT-954          4450.760000 7.203000   0.000000   0.000000   0.000000  
JCT-956          4495.720000 10.730000  0.000000   0.000000   0.000000  
JCT-958          4494.609000 13.811400  0.000000   0.000000   0.000000  
JCT-96           4437.322000 2.651000   0.000000   0.000000   0.000000  
JCT-960          4486.047000 4.000000   0.000000   0.000000   0.000000  
JCT-962          4507.000000 3.000000   0.000000   0.000000   0.000000  
JCT-964          4492.000000 4.000000   0.000000   0.000000   0.000000  
JCT-966          4486.500000 5.188000   0.000000   0.000000   0.000000  
JCT-974          4496.233000 3.000000   0.000000   0.000000   0.000000  
JCT-978          4488.344000 4.000000   0.000000   0.000000   0.000000  
JCT-98           4436.677000 3.115000   0.000000   0.000000   0.000000  
JCT-980          4485.391000 4.000000   0.000000   0.000000   0.000000  
JCT-982          4496.550000 4.000000   0.000000   0.000000   0.000000  
; New Junction
JCT-992          4443.470000 4.910000   0.000000   0.000000   0.000000  
JCT-996          4447.330000 4.000000   0.000000   0.000000   0.000000  
JCT-998          4447.071600 4.908400   0.000000   0.000000   0.000000  

[OUTFALLS]
;;               Invert     Outfall    Stage/Table      Tide
;;Name           Elev.      Type       Time Series      Gate
;;-------------- ---------- ---------- ---------------- ----
; New Outfall
OFALL-100        4430.000000 FREE                        NO
; New Outfall
OFALL-102        4424.000000 FREE                        NO
OFALL-106        4439.410000 FREE                        NO
OFALL-108        4483.000000 FREE                        NO
OFALL-112        4438.210000 FREE                        NO
OFALL-114        4430.000000 FREE                        NO
OFALL-118        4437.880000 FREE                        NO
; New Outfall
OFALL-124        4462.000000 FREE                        NO
OFALL-126        4458.223000 FREE                        NO
OFALL-128        4455.930000 FREE                        NO
OFALL-134        4442.000000 FREE                        NO
; New Outfall
OFALL-136        4427.711000 FREE                        NO
; New Outfall
OFALL-14         4412.346000 NORMAL                      NO
OFALL-140        4459.535600 FREE                        NO
OFALL-142        4450.000000 FREE                        NO
; New Outfall
OFALL-144        0.000000   FREE                        NO
; New Outfall
OFALL-146        0.000000   FREE                        NO
; New Outfall
OFALL-148        0.000000   FREE                        NO
; New Outfall
OFALL-150        0.000000   FREE                        NO
; New Outfall
OFALL-152        0.000000   FREE                        NO
; New Outfall
OFALL-154        0.000000   FREE                        NO
; New Outfall
OFALL-156        4438.000000 FREE                        NO
OFALL-158        4434.602000 FREE                        NO
OFALL-162        4485.130000 FREE                        NO
[...]
SUB-952          1547758.697        3796423.536       
SUB-952          1547760.546        3796334.783       
SUB-952          1548098.077        3796327.819       
SUB-952          1548112.813        3796085.100       
SUB-952          1548086.579        3795881.403       
SUB-952          1547753.789        3795886.386       
SUB-954          1546287.857        3795938.019       
SUB-954          1547736.309        3795886.647       
SUB-954          1548086.579        3795881.403       
SUB-954          1548106.411        3795787.488       
SUB-954          1548119.719        3795721.720       
SUB-954          1548142.149        3795610.871       
SUB-954          1548167.485        3795485.663       
SUB-954          1548180.804        3795419.844       
SUB-954          1548182.563        3795386.787       
SUB-954          1547960.106        3795099.124       
SUB-954          1547665.274        3795105.686       
SUB-954          1547597.636        3795233.262       
SUB-954          1546302.504        3795275.291       
SUB-956          1542456.587        3797289.974       
SUB-956          1542460.380        3797680.238       
SUB-956          1545099.713        3797665.633       
SUB-956          1545084.904        3797237.530       
SUB-958          1542485.987        3798711.404       
SUB-958          1542456.587        3797289.974       
SUB-958          1541108.696        3797283.061       
SUB-958          1541100.319        3798100.329       
SUB-958          1541754.663        3798088.899       
SUB-958          1541775.549        3798705.308       
SUB-960          1542978.024        3796079.227       
SUB-960          1542970.305        3795390.083       
SUB-960          1543424.761        3795383.735       
SUB-960          1543424.769        3794679.270       
SUB-960          1542407.030        3794687.672       
SUB-960          1542432.696        3796100.038       
SUB-964          1545969.314        3795286.042       
SUB-964          1547597.636        3795233.262       
SUB-964          1547665.274        3795105.686       
SUB-964          1547960.106        3795099.124       
SUB-964          1547917.849        3795052.350       
SUB-964          1547863.602        3794968.193       
SUB-964          1547841.855        3794897.881       
SUB-964          1547865.590        3794789.737       
SUB-964          1547867.962        3794672.096       
SUB-964          1547841.592        3794578.676       
SUB-964          1547767.682        3794490.814       
SUB-964          1547715.600        3794413.383       
SUB-964          1547510.088        3794005.753       
SUB-964          1547203.809        3793378.754       
SUB-964          1547116.223        3793196.822       
SUB-964          1546961.612        3792855.514       
SUB-964          1546955.849        3792626.183       
SUB-964          1546880.981        3792587.307       
SUB-964          1546429.919        3792050.396       
SUB-964          1546358.118        3791938.148       
SUB-964          1546121.310        3791944.920       
SUB-964          1546192.205        3794510.193       
SUB-964          1545961.630        3794517.288       
SUB-964          1545963.773        3794626.949       
SUB-966          1545009.145        3794641.151       
SUB-966          1545963.773        3794626.949       
SUB-966          1545961.630        3794517.288       
SUB-966          1546192.205        3794510.193       
SUB-966          1546121.310        3791944.920       
SUB-966          1545602.989        3791968.005       
SUB-966          1545620.698        3792376.236       
SUB-966          1544977.180        3792390.627       
SUB-966          1544988.963        3793727.914       
SUB-966          1544989.933        3793912.009       
SUB-968          1542306.439        3793635.411       
SUB-968          1543672.323        3793605.031       
SUB-968          1543856.674        3793444.955       
SUB-968          1544177.378        3793228.995       
SUB-968          1544148.453        3793183.644       
SUB-968          1544322.878        3793061.822       
SUB-968          1544428.448        3792988.090       
SUB-968          1544526.925        3792919.313       
SUB-968          1544573.903        3792884.681       
SUB-968          1544621.279        3792844.069       
SUB-968          1544677.250        3792787.841       
SUB-968          1544726.688        3792729.284       
SUB-968          1544770.057        3792667.872       
SUB-968          1544829.233        3792561.911       
SUB-968          1544868.409        3792465.477       
SUB-968          1544889.277        3792395.784       
SUB-968          1544924.873        3792179.790       
SUB-968          1544935.345        3791984.532       
SUB-968          1544933.648        3791887.943       
SUB-968          1544879.329        3791889.589       
SUB-968          1544805.803        3791891.818       
SUB-968          1544727.180        3791894.201       
SUB-968          1544677.145        3791895.718       
SUB-968          1544604.432        3791897.922       
SUB-968          1544534.795        3791900.033       
SUB-968          1544468.618        3791902.039       
SUB-968          1544388.946        3791904.454       
SUB-968          1544325.866        3791906.183       
SUB-968          1544222.440        3791909.501       
SUB-968          1544119.191        3791912.631       
SUB-968          1544014.917        3791915.791       
SUB-968          1543930.527        3791918.349       
SUB-968          1543830.154        3791921.392       
SUB-968          1543621.620        3791927.713       
SUB-968          1543526.172        3791930.606       
SUB-968          1543436.646        3791933.320       
SUB-968          1543334.860        3791936.405       
SUB-968          1543214.574        3791940.051       
SUB-968          1543035.386        3791945.483       
SUB-968          1542901.004        3791949.556       
SUB-968          1542624.055        3791957.951       
SUB-968          1542264.489        3791968.850       
SUB-970          1542226.200        3790738.838       
SUB-970          1541831.263        3790747.121       
SUB-970          1541814.273        3790931.966       
SUB-970          1540892.707        3790969.778       
SUB-970          1540897.699        3792001.191       
SUB-970          1541081.229        3791994.131       
SUB-970          1541093.154        3792576.721       
SUB-970          1541203.932        3792744.994       
SUB-970          1541363.817        3792875.427       
SUB-970          1541385.025        3793353.967       
SUB-970          1541433.557        3793351.872       
SUB-970          1542298.571        3793319.204       
SUB-970          1542264.489        3791965.212       
SUB-972          1540892.707        3790969.778       
SUB-972          1540872.946        3790634.276       
SUB-972          1539510.276        3790681.422       
SUB-972          1539548.561        3792028.721       
SUB-972          1540897.699        3792001.191       
SUB-974          1542282.158        3789172.297       
SUB-974          1541497.158        3789194.367       
SUB-974          1539479.064        3789249.303       
SUB-974          1539510.276        3790681.422       
SUB-974          1540872.946        3790634.276       
SUB-974          1540892.707        3790969.778       
SUB-974          1541814.273        3790931.966       
SUB-974          1541831.263        3790747.121       
SUB-974          1542226.200        3790738.838       
SUB-974          1542220.426        3790542.648       
SUB-974          1542307.378        3790541.387       
SUB-976          1544879.638        3789011.455       
SUB-976          1545392.038        3788995.874       
SUB-976          1546281.110        3788983.664       
SUB-976          1546379.074        3788877.717       
SUB-976          1546403.824        3788775.217       
SUB-976          1546442.699        3788770.310       
SUB-976          1546504.574        3788776.060       
SUB-976          1546681.447        3788861.001       
SUB-976          1546663.449        3788777.779       
SUB-976          1546654.199        3788754.436       
SUB-976          1546636.199        3788733.748       
SUB-976          1546615.449        3788723.186       
SUB-976          1546595.199        3788708.217       
SUB-976          1546516.574        3788637.186       
SUB-976          1546481.199        3788585.061       
SUB-976          1546467.824        3788478.436       
SUB-976          1546464.179        3788373.277       
SUB-976          1546443.324        3787807.685       
SUB-976          1546448.449        3787726.404       
SUB-976          1546412.485        3787714.449       
SUB-976          1546332.699        3787714.811       
SUB-976          1546269.449        3787723.998       
SUB-976          1546171.449        3787716.623       
SUB-976          1544259.644        3787807.425       
SUB-976          1544194.915        3787860.895       
SUB-976          1544647.070        3788461.895       
SUB-976          1544766.329        3788631.107       
SUB-976          1544799.762        3788671.674       
SUB-976          1544819.866        3788704.351       
SUB-976          1544840.687        3788744.722       
SUB-976          1544848.086        3788758.630       
SUB-976          1544863.162        3788801.478       
SUB-976          1544870.721        3788830.810       
SUB-976          1544876.242        3788860.592       
SUB-976          1544878.230        3788875.608       
SUB-976          1544878.563        3788924.821       
SUB-978          1544464.442        3787797.698       
SUB-978          1546172.486        3787716.623       
SUB-978          1546172.861        3787685.092       
SUB-978          1546072.192        3787655.717       
SUB-978          1545987.035        3787604.623       
SUB-978          1545902.421        3787545.705       
SUB-978          1545808.748        3787494.610       
SUB-978          1545716.661        3787449.211       
SUB-978          1545593.016        3787395.260       
SUB-978          1545462.442        3787366.874       
SUB-978          1545391.477        3787352.682       
SUB-978          1545322.808        3787240.575       
SUB-978          1545267.456        3787091.550       
SUB-978          1545258.940        3787068.132       
SUB-978          1545248.296        3787019.166       
SUB-978          1545235.522        3786978.717       
SUB-978          1545212.104        3786902.075       
SUB-978          1545205.717        3786838.207       
SUB-978          1545195.072        3786738.147       
SUB-978          1545190.815        3786635.959       
SUB-978          1545190.815        3786567.833       
SUB-978          1545184.428        3786440.097       
SUB-978          1545178.041        3786320.877       
SUB-978          1545081.611        3786341.123       
SUB-978          1545048.611        3786385.186       
SUB-978          1544979.237        3786397.467       
SUB-978          1544922.611        3786354.592       
SUB-978          1544903.861        3786302.279       
SUB-978          1544937.486        3786250.779       
SUB-978          1544938.486        3786200.029       
SUB-978          1544905.736        3786172.061       
SUB-978          1544812.987        3786065.342       
SUB-978          1544780.611        3786083.061       
SUB-978          1544706.986        3786183.467       
SUB-978          1544638.598        3786174.092       
SUB-978          1544535.723        3786180.967       
SUB-978          1544502.586        3786184.739       
SUB-978          1544497.686        3786235.355       
SUB-978          1544494.829        3786254.211       
SUB-978          1544492.544        3786275.924       
SUB-978          1544490.258        3786293.066       
SUB-978          1544468.985        3786473.733       
SUB-980          1542172.635        3786813.580       
SUB-980          1542603.862        3786810.570       
SUB-980          1542763.343        3786803.113       
SUB-980          1542847.875        3786797.753       
SUB-980          1542848.553        3786815.380       
SUB-980          1543053.701        3786921.044       
SUB-980          1543095.546        3786943.164       
SUB-980          1543131.385        3786964.362       
SUB-980          1543235.622        3787026.017       
SUB-980          1543367.279        3787126.354       
SUB-980          1543463.274        3787193.864       
SUB-980          1543560.320        3787188.441       
SUB-980          1543660.080        3787330.134       
SUB-980          1543798.031        3787489.929       
SUB-980          1543800.644        3787615.311       
SUB-980          1543883.204        3787608.917       
SUB-980          1543925.958        3787620.443       
SUB-980          1543976.178        3787684.171       
SUB-980          1544034.541        3787767.559       
SUB-980          1544140.069        3787903.606       
SUB-980          1544195.039        3787860.895       
SUB-980          1544259.768        3787807.425       
SUB-980          1544464.567        3787797.698       
SUB-980          1544467.846        3786841.927       
SUB-980          1544469.110        3786473.733       
SUB-980          1544502.711        3786184.739       
SUB-980          1544412.848        3786194.967       
SUB-980          1544373.348        3786180.217       
SUB-980          1544336.598        3786205.623       
SUB-980          1544277.223        3786220.936       
SUB-980          1544241.223        3786223.467       
SUB-980          1544227.348        3786214.280       
SUB-980          1544210.098        3786221.186       
SUB-980          1544174.098        3786221.373       
SUB-980          1544091.598        3786191.592       
SUB-980          1544036.223        3786115.717       
SUB-980          1544012.723        3785974.592       
SUB-980          1544017.848        3785946.686       
SUB-980          1544046.848        3785920.748       
SUB-980          1544067.348        3785928.061       
SUB-980          1544101.973        3785961.779       
SUB-980          1544129.973        3785964.311       
SUB-980          1544168.973        3785920.436       
SUB-980          1544152.348        3785886.123       
SUB-980          1544128.348        3785866.248       
SUB-980          1544006.816        3785847.819       
SUB-980          1543779.214        3785821.723       
SUB-980          1543683.098        3785834.998       
SUB-980          1543594.973        3785831.373       
SUB-980          1543428.223        3785843.717       
SUB-980          1543380.425        3785849.544       
SUB-980          1543325.277        3785866.921       
SUB-980          1543286.750        3785887.935       
SUB-980          1543250.412        3785903.040       
SUB-980          1543210.025        3785921.756       
SUB-980          1543174.672        3785936.970       
SUB-980          1543135.160        3785955.248       
SUB-980          1543095.758        3785966.084       
SUB-980          1543059.311        3785969.039       
SUB-980          1543017.938        3785969.039       
SUB-980          1542951.231        3785971.639       
SUB-980          1542837.279        3785976.783       
SUB-980          1542768.718        3785979.874       
SUB-980          1542704.920        3785981.252       
SUB-980          1542612.176        3785983.254       
SUB-980          1542501.794        3785986.337       
SUB-980          1542374.412        3785990.520       
SUB-980          1542296.297        3785993.085       
SUB-980          1542202.553        3785996.163       
SUB-980          1542151.961        3785997.824       
SUB-982          1539064.123        3787291.489       
SUB-982          1539446.989        3787285.983       
SUB-982          1539466.199        3787999.231       
SUB-982          1539479.064        3789249.303       
SUB-982          1541497.158        3789194.367       
SUB-982          1541465.878        3788590.457       
SUB-982          1540161.138        3788613.107       
SUB-982          1540145.588        3787930.647       
SUB-982          1540766.858        3787915.187       
SUB-982          1540756.941        3787263.153       
SUB-982          1541598.016        3787247.128       
SUB-982          1541593.475        3786917.316       
SUB-982          1542174.727        3786905.606       
SUB-982          1542172.510        3786813.580       
SUB-982          1542166.474        3786575.393       
SUB-982          1539049.171        3786651.505       
SUB-984          1539403.857        3786594.387       
SUB-984          1540784.737        3786563.183       
SUB-984          1540734.153        3784700.357       
SUB-984          1539986.952        3784720.772       
SUB-984          1539983.704        3784523.262       
SUB-984          1539363.332        3784523.023       
SUB-984          1539369.068        3785020.078       
SUB-986          1537927.296        3786612.357       
SUB-986          1539403.857        3786594.387       
SUB-986          1539369.068        3785020.078       
SUB-986          1539320.980        3785022.057       
SUB-986          1539331.357        3785131.626       
SUB-986          1537897.000        3785112.279       
SUB-986          1537912.105        3785841.115       
SUB-986          1537919.957        3786260.539       
SUB-988          1537927.928        3786644.443       
SUB-988          1537912.105        3785841.115       
SUB-988          1536765.646        3785841.192       
SUB-988          1536770.901        3786665.131       
SUB-990          1542148.009        3785613.237       
SUB-990          1541399.456        3785623.656       
SUB-990          1541419.199        3786593.638       
SUB-990          1542166.474        3786575.393       
SUB-990          1542151.836        3785997.824       
SUB-992          1544115.725        3785484.485       
SUB-992          1544160.271        3785476.080       
SUB-992          1544201.107        3785463.525       
SUB-992          1544289.060        3785413.309       
SUB-992          1544355.025        3785385.062       
SUB-992          1544433.555        3785394.477       
SUB-992          1544530.931        3785454.110       
SUB-992          1544562.343        3785623.591       
SUB-992          1544626.166        3785050.587       
SUB-992          1544764.265        3783782.536       
SUB-992          1544628.052        3783781.724       
SUB-992          1544414.123        3783787.841       
SUB-992          1544343.446        3783788.425       
SUB-992          1544274.068        3783790.396       
SUB-992          1544201.143        3783790.790       
SUB-992          1544140.831        3783791.973       
SUB-992          1544075.519        3783793.558       
SUB-996          1541016.079        3776899.228       
SUB-996          1540308.818        3778054.603       
SUB-996          1540582.520        3778482.504       
SUB-996          1541480.726        3778486.359       
SUB-996          1541501.493        3777387.669       

[SYMBOLS]
;;Gage           X-Coord            Y-Coord           
;;-------------- ------------------ ------------------
RAINGAGE-1       1557653.003        3795477.143       
RAINGAGE-2       1554055.575        3803292.207       
RAINGAGE-3       1543326.576        3791856.258       
RAINGAGE-4       1533637.208        3767113.023       

